[VMEM] WARNING: physical memory size is smaller than virtual memory size.

*** ChampSim Multicore Out-of-Order Simulator ***
Warmup Instructions: 0
Simulation Instructions: 102792572
Number of CPUs: 1
Page size: 4096

Off-chip DRAM Size: 16 GiB Channels: 1 Width: 64-bit Data Rate: 3205 MT/s
Warmup finished CPU 0 instructions: 0 cycles: 1 cumulative IPC: 0 (Simulation time: 00 hr 00 min 00 sec)
Warmup complete CPU 0 instructions: 0 cycles: 1 cumulative IPC: 0 (Simulation time: 00 hr 00 min 00 sec)
Updating replacement state
[ARC Fill] New block => Insert 0xdf85c7c0 into T1
Updating replacement state
[ARC Fill] New block => Insert 0x28b67c7c0 into T1
Updating replacement state
[ARC Fill] New block => Insert 0x229b98a40 into T1
Updating replacement state
[ARC Fill] New block => Insert 0x148d87640 into T1
Updating replacement state
[ARC Fill] New block => Insert 0x3028c7c00 into T1
Updating replacement state
[ARC Fill] New block => Insert 0x1f919c080 into T1
Updating replacement state
Updating replacement state
Updating replacement state
Updating replacement state
[ARC Fill] New block => Insert 0x1f919ce80 into T1
[ARC Fill] New block => Insert 0x1f919cec0 into T1
[ARC Fill] New block => Insert 0x28b67c000 into T1
[ARC Fill] New block => Insert 0x1f919cf00 into T1
Updating replacement state
Updating replacement state
Updating replacement state
[ARC Fill] New block => Insert 0x1f919cf40 into T1
[ARC Fill] New block => Insert 0x1d89d8000 into T1
[ARC Fill] New block => Insert 0xe34fb000 into T1
Updating replacement state
Updating replacement state
[ARC Fill] New block => Insert 0x223ed8280 into T1
[ARC Fill] New block => Insert 0x9cff2640 into T1
Updating replacement state
Updating replacement state
Updating replacement state
[ARC Fill] New block => Insert 0xd9fe75c0 into T1
[ARC Fill] New block => Insert 0x3e5c3dd40 into T1
[ARC Fill] New block => Insert 0x397bb2d40 into T1
Updating replacement state
Updating replacement state
Updating replacement state
Updating replacement state
[ARC Fill] New block => Insert 0x2f945b940 into T1
[ARC Fill] New block => Insert 0x2d9355000 into T1
[ARC Fill] New block => Insert 0x2f945b980 into T1
[ARC Fill] New block => Insert 0x1aafb6e40 into T1
Updating replacement state
Updating replacement state
Updating replacement state
Updating replacement state
Updating replacement state
Updating replacement state
[ARC Fill] New block => Insert 0x1aafb6700 into T1
[ARC Fill] New block => Insert 0x2d93559c0 into T1
[ARC Fill] New block => Insert 0x2d9355a40 into T1
[ARC Fill] New block => Insert 0x2d9355a00 into T1
[ARC Fill] New block => Insert 0x2d9355a80 into T1
[ARC Fill] New block => Insert 0x1aafb6e80 into T1
Updating replacement state
[ARC Fill] New block => Insert 0x3028c7280 into T1
Updating replacement state
[ARC Fill] New block => Insert 0x129932280 into T1
Updating replacement state
[ARC Fill] New block => Insert 0x129932300 into T1
Updating replacement state
Updating replacement state
Updating replacement state
Updating replacement state
[ARC Fill] New block => Insert 0x1aafb6f00 into T1
[ARC Fill] New block => Insert 0x2d9355c80 into T1
[ARC Fill] New block => Insert 0x1aafb6ec0 into T1
[ARC Fill] New block => Insert 0x1aafb6f40 into T1
Updating replacement state
Updating replacement state
Updating replacement state
Updating replacement state
[ARC Fill] New block => Insert 0x2d9355ac0 into T1
[ARC Fill] New block => Insert 0x2d9355b40 into T1
[ARC Fill] New block => Insert 0x1aafb6f80 into T1
[ARC Fill] New block => Insert 0x2d9355b80 into T1
Updating replacement state
Updating replacement state
Updating replacement state
Updating replacement state
[ARC Fill] New block => Insert 0x129932000 into T1
[ARC Fill] New block => Insert 0x129932040 into T1
[ARC Fill] New block => Insert 0x1f919cf80 into T1
[ARC Fill] New block => Insert 0x1f919cfc0 into T1
Updating replacement state
[ARC Fill] New block => Insert 0x2d9355b00 into T1
Updating replacement state
[ARC Fill] New block => Insert 0x129932080 into T1
Updating replacement state
Updating replacement state
Updating replacement state
Updating replacement state
[ARC Fill] New block => Insert 0x129932180 into T1
[ARC Fill] New block => Insert 0x129932140 into T1
[ARC Fill] New block => Insert 0x1299321c0 into T1
Updating replacement state
[ARC Fill] New block => Insert 0x129932200 into T1
[ARC Fill] New block => Insert 0x9cff2c00 into T1
Updating replacement state
[ARC Fill] New block => Insert 0x43736c00 into T1
Updating replacement state
[ARC Fill] New block => Insert 0x339e7fa00 into T1
Updating replacement state
Updating replacement state
Updating replacement state
Updating replacement state
Updating replacement state
[ARC Fill] New block => Insert 0x1aafb68c0 into T1
[ARC Fill] New block => Insert 0x339e7fa40 into T1
[ARC Fill] New block => Insert 0x339e7fac0 into T1
[ARC Fill] New block => Insert 0x339e7fb00 into T1
Updating replacement state
[ARC Fill] New block => Insert 0x339e7fa80 into T1
Updating replacement state
Updating replacement state
Updating replacement state
Updating replacement state
Updating replacement state
Updating replacement state
Updating replacement state
Updating replacement state
Updating replacement state
[ARC Fill] New block => Insert 0x339e7fb40 into T1
Updating replacement state
Updating replacement state
Updating replacement state
[ARC Fill] New block => Insert 0x339e7fb80 into T1
[ARC Fill] New block => Insert 0x1aafb6980 into T1
Updating replacement state
Updating replacement state
[ARC Fill] New block => Insert 0x1aafb6a00 into T1
Updating replacement state
Updating replacement state
Updating replacement state
Updating replacement state
[ARC Fill] New block => Insert 0x339e7fc40 into T1
[ARC Fill] New block => Insert 0x339e7fc00 into T1
[ARC Fill] New block => Insert 0x339e7fc80 into T1
[ARC Fill] New block => Insert 0x1aafb6900 into T1
[ARC Fill] New block => Insert 0x1aafb6a40 into T1
[ARC Fill] New block => Insert 0x1aafb6a80 into T1
[ARC Fill] New block => Insert 0x339e7fcc0 into T1
[ARC Fill] New block => Insert 0x1aafb69c0 into T1
[ARC Fill] New block => Insert 0x339e7fbc0 into T1
Updating replacement state
Updating replacement state
Updating replacement state
Hit: 0x339e7fcc0
T1: 0x339e7fcc0 
Updating replacement state
Updating replacement state
Updating replacement state
Updating replacement state
Updating replacement state
Updating replacement state
Updating replacement state
Updating replacement state
Updating replacement state
Updating replacement state
Updating replacement state
Updating replacement state
[ARC Fill] New block => Insert 0x1aafb6ac0 into T1
[ARC Fill] New block => Insert 0x1aafb6b00 into T1
[ARC Fill] New block => Insert 0x339e7fd40 into T1
[ARC Fill] New block => Insert 0x339e7fd00 into T1
Updating replacement state
Updating replacement state
Updating replacement state
[ARC Fill] New block => Insert 0x1aafb6b40 into T1
[ARC Fill] New block => Insert 0x1aafb6bc0 into T1
[ARC Fill] New block => Insert 0x1aafb6b80 into T1
[ARC Fill] New block => Insert 0x1aafb6c00 into T1
[ARC Fill] New block => Insert 0x1aafb6c40 into T1
[ARC Fill] New block => Insert 0x1aafb6c80 into T1
[ARC Fill] New block => Insert 0x1aafb6cc0 into T1
[ARC Fill] New block => Insert 0x339e7fd80 into T1
[ARC Fill] New block => Insert 0x339e7fdc0 into T1
Updating replacement state
[ARC Fill] New block => Insert 0x1aafb6d00 into T1
Updating replacement state
[ARC Fill] New block => Insert 0x1aafb6d40 into T1
[ARC Fill] New block => Insert 0x1aafb6d80 into T1
[ARC Fill] New block => Insert 0x1aafb6dc0 into T1
[ARC Fill] New block => Insert 0x339e7fe00 into T1
[ARC Fill] New block => Insert 0x1aafb6e00 into T1
[ARC Fill] New block => Insert 0x129932240 into T1
Updating replacement state
Updating replacement state
[ARC Fill] New block => Insert 0x339e7f4c0 into T1
[ARC Fill] New block => Insert 0x43736540 into T1
Updating replacement state
[ARC Fill] New block => Insert 0x3734ec540 into T1
Updating replacement state
[ARC Fill] New block => Insert 0x1299322c0 into T1
Updating replacement state
Updating replacement state
Hit: 0x339e7fdc0
T1: 0x339e7fdc0 
Updating replacement state
Updating replacement state
Updating replacement state
Updating replacement state
Updating replacement state
Updating replacement state
Updating replacement state
[ARC Fill] New block => Insert 0x339e7f480 into T1
Updating replacement state
Hit: 0x339e7fe00
T1: 0x339e7fe00 
[ARC Fill] New block => Insert 0x339e7f400 into T1
[ARC Fill] New block => Insert 0x339e7f3c0 into T1
Updating replacement state
Updating replacement state
Updating replacement state
[ARC Fill] New block => Insert 0x1aafb6fc0 into T1
[ARC Fill] New block => Insert 0x339e7f440 into T1
[ARC Fill] New block => Insert 0x339e7f380 into T1
[ARC Fill] New block => Insert 0x339e7f640 into T1
Updating replacement state
[ARC Fill] New block => Insert 0x339e7f680 into T1
[ARC Fill] New block => Insert 0x339e7fe40 into T1
[ARC Fill] New block => Insert 0x339e7fe80 into T1
Updating replacement state
Updating replacement state
[ARC Fill] New block => Insert 0x339e7f540 into T1
[ARC Fill] New block => Insert 0x339e7fec0 into T1
Updating replacement state
Updating replacement state
[ARC Fill] New block => Insert 0x339e7f5c0 into T1
Updating replacement state
[ARC Fill] New block => Insert 0x339e7ff00 into T1
[ARC Fill] New block => Insert 0x1299320c0 into T1
[ARC Fill] New block => Insert 0x2d9355d00 into T1
Updating replacement state
Updating replacement state
[ARC Fill] New block => Insert 0x2d9355040 into T1
[ARC Fill] New block => Insert 0x3028c7100 into T1
[ARC Fill] New block => Insert 0x2f945b900 into T1
Updating replacement state
Updating replacement state
[ARC Fill] New block => Insert 0x3a270f100 into T1
[ARC Fill] New block => Insert 0x3a270f140 into T1
Updating replacement state
Updating replacement state
[ARC Fill] New block => Insert 0x339e7f2c0 into T1
[ARC Fill] New block => Insert 0x129932100 into T1
Updating replacement state
Updating replacement state
Updating replacement state
[ARC Fill] New block => Insert 0x2d9355cc0 into T1
[ARC Fill] New block => Insert 0x3028c7a40 into T1
[ARC Fill] New block => Insert 0x2d9355d40 into T1
Updating replacement state
Updating replacement state
[ARC Fill] New block => Insert 0x1c5f2fa40 into T1
Updating replacement state
Updating replacement state
[ARC Fill] New block => Insert 0x1c5f2fa80 into T1
Updating replacement state
Updating replacement state
Updating replacement state
[ARC Fill] New block => Insert 0x2f945b8c0 into T1
[ARC Fill] New block => Insert 0x1aafb6740 into T1
[ARC Fill] New block => Insert 0x2f945ba00 into T1
[ARC Fill] New block => Insert 0x2f945b9c0 into T1
Updating replacement state
Updating replacement state
[ARC Fill] New block => Insert 0x3e5c3d100 into T1
Updating replacement state
Updating replacement state
[ARC Fill] New block => Insert 0x2f945ba40 into T1
Updating replacement state
Updating replacement state
[ARC Fill] New block => Insert 0x2f945ba80 into T1
[ARC Fill] New block => Insert 0x2f945bac0 into T1
[ARC Fill] New block => Insert 0x2f945bb00 into T1
[ARC Fill] New block => Insert 0x20ecf5100 into T1
[ARC Fill] New block => Insert 0x2f945bb40 into T1
Updating replacement state
Updating replacement state
Updating replacement state
Updating replacement state
[ARC Fill] New block => Insert 0x1c5f2fac0 into T1
[ARC Fill] New block => Insert 0x1c5f2fb00 into T1
Updating replacement state
[ARC Fill] New block => Insert 0x1c5f2fb40 into T1
Updating replacement state
[ARC Fill] New block => Insert 0x1c5f2fb80 into T1
Updating replacement state
Updating replacement state
[ARC Fill] New block => Insert 0x3734ece40 into T1
[ARC Fill] New block => Insert 0x1aafb6780 into T1
Updating replacement state
[ARC Fill] New block => Insert 0x1aafb6880 into T1
[ARC Fill] New block => Insert 0x1aafb67c0 into T1
Updating replacement state
[ARC Fill] New block => Insert 0x1c5f2fc40 into T1
Updating replacement state
[ARC Fill] New block => Insert 0x2f945b880 into T1
[ARC Fill] New block => Insert 0x2f945bb80 into T1
Updating replacement state
[ARC Fill] New block => Insert 0x3734ece00 into T1
Updating replacement state
Updating replacement state
[ARC Fill] New block => Insert 0x1c5f2fd00 into T1
[ARC Fill] New block => Insert 0x1c5f2fd40 into T1
Updating replacement state
Updating replacement state
Updating replacement state
Updating replacement state
[ARC Fill] New block => Insert 0x3734ecdc0 into T1
[ARC Fill] New block => Insert 0x3734ecd40 into T1
Updating replacement state
[ARC Fill] New block => Insert 0x3734ecd80 into T1
[ARC Fill] New block => Insert 0x3734ecd00 into T1
[ARC Fill] New block => Insert 0x1c5f2fd80 into T1
Updating replacement state
[ARC Fill] New block => Insert 0x2f945bbc0 into T1
Updating replacement state
[ARC Fill] New block => Insert 0x1c5f2fdc0 into T1
Updating replacement state
[ARC Fill] New block => Insert 0x2f945bc00 into T1
Updating replacement state
[ARC Fill] New block => Insert 0x2f945bc40 into T1
Updating replacement state
[ARC Fill] New block => Insert 0x1c5f2fcc0 into T1
Updating replacement state
[ARC Fill] New block => Insert 0x1c5f2fc80 into T1
Updating replacement state
[ARC Fill] New block => Insert 0x2f945bc80 into T1
Updating replacement state
[ARC Fill] New block => Insert 0x3028c7240 into T1
Updating replacement state
[ARC Fill] New block => Insert 0x136aaa240 into T1
Updating replacement state
Updating replacement state
[ARC Fill] New block => Insert 0x1c5f2fc00 into T1
[ARC Fill] New block => Insert 0x1c5f2fbc0 into T1
Updating replacement state
[ARC Fill] New block => Insert 0x3028c7dc0 into T1
Updating replacement state
[ARC Fill] New block => Insert 0x30a9a1dc0 into T1
Updating replacement state
Updating replacement state
Updating replacement state
[ARC Fill] New block => Insert 0x2f945b840 into T1
[ARC Fill] New block => Insert 0x30a9a1e40 into T1
[ARC Fill] New block => Insert 0x30a9a1e00 into T1
Updating replacement state
Updating replacement state
Updating replacement state
[ARC Fill] New block => Insert 0x2f945b800 into T1
[ARC Fill] New block => Insert 0xd9fe7240 into T1
[ARC Fill] New block => Insert 0x30a9a1e80 into T1
Updating replacement state
Updating replacement state
[ARC Fill] New block => Insert 0x364c31240 into T1
[ARC Fill] New block => Insert 0x364c31280 into T1
Updating replacement state
[ARC Fill] New block => Insert 0x30a9a1ec0 into T1
Updating replacement state
[ARC Fill] New block => Insert 0x30a9a1f00 into T1
Updating replacement state
[ARC Fill] New block => Insert 0x43736f00 into T1
Updating replacement state
Updating replacement state
Updating replacement state
[ARC Fill] New block => Insert 0x12c6faf00 into T1
[ARC Fill] New block => Insert 0x12c6fafc0 into T1
[ARC Fill] New block => Insert 0x12c6faf40 into T1
Updating replacement state
[ARC Fill] New block => Insert 0x43736000 into T1
Updating replacement state
Updating replacement state
Updating replacement state
Updating replacement state
Updating replacement state
Updating replacement state
[ARC Fill] New block => Insert 0x242e93000 into T1
[ARC Fill] New block => Insert 0x242e93080 into T1
[ARC Fill] New block => Insert 0x242e93040 into T1
[ARC Fill] New block => Insert 0x242e93100 into T1
[ARC Fill] New block => Insert 0x242e930c0 into T1
[ARC Fill] New block => Insert 0x242e93140 into T1
Updating replacement state
Updating replacement state
[ARC Fill] New block => Insert 0x242e93180 into T1
[ARC Fill] New block => Insert 0x30a9a1f40 into T1
Updating replacement state
Updating replacement state
[ARC Fill] New block => Insert 0x364c31840 into T1
[ARC Fill] New block => Insert 0x364c31880 into T1
Updating replacement state
[ARC Fill] New block => Insert 0x364c318c0 into T1
Updating replacement state
[ARC Fill] New block => Insert 0x364c31900 into T1
Updating replacement state
[ARC Fill] New block => Insert 0x364c31940 into T1
Updating replacement state
[ARC Fill] New block => Insert 0x364c31980 into T1
Updating replacement state
[ARC Fill] New block => Insert 0x364c319c0 into T1
Updating replacement state
[ARC Fill] New block => Insert 0x364c31a00 into T1
Updating replacement state
[ARC Fill] New block => Insert 0x364c31a40 into T1
Updating replacement state
[ARC Fill] New block => Insert 0x364c31a80 into T1
Updating replacement state
Updating replacement state
Updating replacement state
Updating replacement state
[ARC Fill] New block => Insert 0x364c31ac0 into T1
[ARC Fill] New block => Insert 0x364c31b00 into T1
[ARC Fill] New block => Insert 0x364c31b80 into T1
[ARC Fill] New block => Insert 0x364c31b40 into T1
Updating replacement state
Updating replacement state
[ARC Fill] New block => Insert 0x364c31c00 into T1
[ARC Fill] New block => Insert 0x364c31bc0 into T1
Updating replacement state
[ARC Fill] New block => Insert 0x364c31c40 into T1
Updating replacement state
[ARC Fill] New block => Insert 0x364c31d40 into T1
Updating replacement state
[ARC Fill] New block => Insert 0x364c31d80 into T1
Updating replacement state
[ARC Fill] New block => Insert 0x364c31e00 into T1
Updating replacement state
Updating replacement state
Updating replacement state
[ARC Fill] New block => Insert 0x364c31e80 into T1
[ARC Fill] New block => Insert 0x364c31f80 into T1
[ARC Fill] New block => Insert 0x364c31f00 into T1
Updating replacement state
[ARC Fill] New block => Insert 0x364c31f40 into T1
Updating replacement state
[ARC Fill] New block => Insert 0x3028c7080 into T1
Updating replacement state
Updating replacement state
[ARC Fill] New block => Insert 0x10e027080 into T1
[ARC Fill] New block => Insert 0x10e0270c0 into T1
Updating replacement state
Updating replacement state
[ARC Fill] New block => Insert 0x20ecf50c0 into T1
[ARC Fill] New block => Insert 0x1c5f2fe00 into T1
Updating replacement state
[ARC Fill] New block => Insert 0x136aaa100 into T1
Updating replacement state
Updating replacement state
Updating replacement state
Updating replacement state
[ARC Fill] New block => Insert 0x1c5f2f800 into T1
[ARC Fill] New block => Insert 0x1c5f2f840 into T1
[ARC Fill] New block => Insert 0x1c5f2f880 into T1
[ARC Fill] New block => Insert 0x1c5f2f7c0 into T1
Updating replacement state
[ARC Fill] New block => Insert 0x1c5f2f9c0 into T1
Updating replacement state
Updating replacement state
[ARC Fill] New block => Insert 0x1aafb6800 into T1
[ARC Fill] New block => Insert 0x1c5f2fa00 into T1
Updating replacement state
[ARC Fill] New block => Insert 0x1c5f2f8c0 into T1
Updating replacement state
[ARC Fill] New block => Insert 0x1c5f2f980 into T1
Updating replacement state
[ARC Fill] New block => Insert 0x136aaa140 into T1
Updating replacement state
Updating replacement state
[ARC Fill] New block => Insert 0x136aaa180 into T1
[ARC Fill] New block => Insert 0x136aaa1c0 into T1
Updating replacement state
[ARC Fill] New block => Insert 0x3734ece80 into T1
Updating replacement state
[ARC Fill] New block => Insert 0x136aaa200 into T1
Updating replacement state
Updating replacement state
[ARC Fill] New block => Insert 0x1c5f2fe80 into T1
[ARC Fill] New block => Insert 0x1c5f2fe40 into T1
Updating replacement state
[ARC Fill] New block => Insert 0x3028c73c0 into T1
Updating replacement state
[ARC Fill] New block => Insert 0x1970d03c0 into T1
Updating replacement state
[ARC Fill] New block => Insert 0x1970d0400 into T1
Updating replacement state
[ARC Fill] New block => Insert 0x1c5f2fec0 into T1
Updating replacement state
[ARC Fill] New block => Insert 0x136aaa000 into T1
Updating replacement state
[ARC Fill] New block => Insert 0x136aaa040 into T1
Updating replacement state
[ARC Fill] New block => Insert 0x1c5f2ff00 into T1
Updating replacement state
[ARC Fill] New block => Insert 0x3028c7d00 into T1
Updating replacement state
Updating replacement state
[ARC Fill] New block => Insert 0x2f5d8cd00 into T1
[ARC Fill] New block => Insert 0x2f5d8cd40 into T1
Updating replacement state
Updating replacement state
[ARC Fill] New block => Insert 0x2f945bcc0 into T1
[ARC Fill] New block => Insert 0x10e027100 into T1
Updating replacement state
[ARC Fill] New block => Insert 0x10e027140 into T1
Updating replacement state
[ARC Fill] New block => Insert 0x1c5f2ff40 into T1
Updating replacement state
Updating replacement state
Updating replacement state
Updating replacement state
[ARC Fill] New block => Insert 0x129932640 into T1
[ARC Fill] New block => Insert 0x1299326c0 into T1
[ARC Fill] New block => Insert 0x129932680 into T1
[ARC Fill] New block => Insert 0x129932700 into T1
Updating replacement state
Updating replacement state
Updating replacement state
Updating replacement state
Updating replacement state
Updating replacement state
[ARC Fill] New block => Insert 0x2d9355fc0 into T1
[ARC Fill] New block => Insert 0x2d9355f40 into T1
[ARC Fill] New block => Insert 0x2f945b6c0 into T1
[ARC Fill] New block => Insert 0x136aaa5c0 into T1
[ARC Fill] New block => Insert 0x2f945b700 into T1
[ARC Fill] New block => Insert 0x2f945b680 into T1
Updating replacement state
[ARC Fill] New block => Insert 0x136aaa600 into T1
Updating replacement state
[ARC Fill] New block => Insert 0x129932740 into T1
Updating replacement state
[ARC Fill] New block => Insert 0x3734ec600 into T1
Updating replacement state
[ARC Fill] New block => Insert 0x1299328c0 into T1
Updating replacement state
[ARC Fill] New block => Insert 0x2f5d8c700 into T1
Updating replacement state
[ARC Fill] New block => Insert 0x2f5d8c740 into T1
Updating replacement state
Updating replacement state
[ARC Fill] New block => Insert 0x2f5d8c780 into T1
Updating replacement state
[ARC Fill] New block => Insert 0x12c6fa980 into T1
Updating replacement state
[ARC Fill] New block => Insert 0x12c6fa9c0 into T1
[ARC Fill] New block => Insert 0x2f5d8c7c0 into T1
Updating replacement state
[ARC Fill] New block => Insert 0x2f5d8c800 into T1
Updating replacement state
[ARC Fill] New block => Insert 0x129932900 into T1
Updating replacement state
[ARC Fill] New block => Insert 0x3028c75c0 into T1
Updating replacement state
[ARC Fill] New block => Insert 0x3d96d95c0 into T1
Updating replacement state
[ARC Fill] New block => Insert 0x1aafb6680 into T1
Updating replacement state
Updating replacement state
Updating replacement state
Updating replacement state
[ARC Fill] New block => Insert 0x364c31c80 into T1
[ARC Fill] New block => Insert 0x364c31cc0 into T1
[ARC Fill] New block => Insert 0x364c31d00 into T1
[ARC Fill] New block => Insert 0x129932a80 into T1
Updating replacement state
[ARC Fill] New block => Insert 0x129932ac0 into T1
Updating replacement state
[ARC Fill] New block => Insert 0x129932ec0 into T1
Updating replacement state
[ARC Fill] New block => Insert 0x3a270f240 into T1
Updating replacement state
Updating replacement state
Updating replacement state
Updating replacement state
[ARC Fill] New block => Insert 0x2f945b640 into T1
[ARC Fill] New block => Insert 0x3a270f280 into T1
[ARC Fill] New block => Insert 0x2f945b600 into T1
Updating replacement state
[ARC Fill] New block => Insert 0x12c6fa680 into T1
[ARC Fill] New block => Insert 0x3028c7ec0 into T1
Updating replacement state
[ARC Fill] New block => Insert 0x9031fec0 into T1
Updating replacement state
[ARC Fill] New block => Insert 0x136aaa7c0 into T1
Updating replacement state
[ARC Fill] New block => Insert 0x9031fe80 into T1
Updating replacement state
[ARC Fill] New block => Insert 0x136aaa680 into T1
Updating replacement state
Updating replacement state
[ARC Fill] New block => Insert 0x136aaa740 into T1
[ARC Fill] New block => Insert 0x136aaa780 into T1
Updating replacement state
[ARC Fill] New block => Insert 0x136aaa6c0 into T1
Updating replacement state
[ARC Fill] New block => Insert 0x3a270f2c0 into T1
Updating replacement state
Updating replacement state
Updating replacement state
[ARC Fill] New block => Insert 0x20ecf5400 into T1
[ARC Fill] New block => Insert 0x20ecf5180 into T1
[ARC Fill] New block => Insert 0x3dae64240 into T1
Updating replacement state
[ARC Fill] New block => Insert 0x3dae64280 into T1
Updating replacement state
Updating replacement state
[ARC Fill] New block => Insert 0x20ecf5700 into T1
[ARC Fill] New block => Insert 0x3a270f300 into T1
Updating replacement state
Updating replacement state
Updating replacement state
Updating replacement state
[ARC Fill] New block => Insert 0x20ecf5480 into T1
[ARC Fill] New block => Insert 0x20ecf5140 into T1
[ARC Fill] New block => Insert 0x20ecf56c0 into T1
[ARC Fill] New block => Insert 0x3a270f480 into T1
Updating replacement state
Updating replacement state
[ARC Fill] New block => Insert 0x3a270f340 into T1
[ARC Fill] New block => Insert 0x20ecf5500 into T1
Updating replacement state
Updating replacement state
Updating replacement state
Updating replacement state
Updating replacement state
Updating replacement state
[ARC Fill] New block => Insert 0x20ecf5440 into T1
[ARC Fill] New block => Insert 0x20ecf55c0 into T1
[ARC Fill] New block => Insert 0x20ecf5600 into T1
[ARC Fill] New block => Insert 0x20ecf5640 into T1
[ARC Fill] New block => Insert 0x20ecf5680 into T1
[ARC Fill] New block => Insert 0x3a270f380 into T1
Updating replacement state
Updating replacement state
[ARC Fill] New block => Insert 0x20ecf54c0 into T1
[ARC Fill] New block => Insert 0x3a270f540 into T1
Updating replacement state
Updating replacement state
[ARC Fill] New block => Insert 0x3a270f3c0 into T1
[ARC Fill] New block => Insert 0x3a270f400 into T1
Updating replacement state
[ARC Fill] New block => Insert 0x129932f00 into T1
Updating replacement state
Updating replacement state
[ARC Fill] New block => Insert 0x3a270f1c0 into T1
[ARC Fill] New block => Insert 0x3a270f180 into T1
Updating replacement state
[ARC Fill] New block => Insert 0x1f919c0c0 into T1
Updating replacement state
Updating replacement state
[ARC Fill] New block => Insert 0x2d9355980 into T1
[ARC Fill] New block => Insert 0x3a270f200 into T1
Updating replacement state
Updating replacement state
[ARC Fill] New block => Insert 0x129932f80 into T1
[ARC Fill] New block => Insert 0x129932f40 into T1
Updating replacement state
Updating replacement state
[ARC Fill] New block => Insert 0x129932fc0 into T1
[ARC Fill] New block => Insert 0x38e35ac00 into T1
Updating replacement state
[ARC Fill] New block => Insert 0x3c1072040 into T1
Updating replacement state
[ARC Fill] New block => Insert 0x3028c7900 into T1
Updating replacement state
[ARC Fill] New block => Insert 0x6a97f900 into T1
Updating replacement state
Updating replacement state
[ARC Fill] New block => Insert 0x6a97f880 into T1
[ARC Fill] New block => Insert 0x6a97f8c0 into T1
Updating replacement state
[ARC Fill] New block => Insert 0x3c1072080 into T1
Updating replacement state
Updating replacement state
Updating replacement state
Updating replacement state
[ARC Fill] New block => Insert 0x20ecf5000 into T1
[ARC Fill] New block => Insert 0x6a97f980 into T1
[ARC Fill] New block => Insert 0x6a97f9c0 into T1
[ARC Fill] New block => Insert 0x6a97f940 into T1
Updating replacement state
Updating replacement state
Updating replacement state
Updating replacement state
[ARC Fill] New block => Insert 0x3c10720c0 into T1
[ARC Fill] New block => Insert 0x3c1072140 into T1
[ARC Fill] New block => Insert 0x3c1072100 into T1
[ARC Fill] New block => Insert 0x3c1072180 into T1
Updating replacement state
Updating replacement state
Updating replacement state
Updating replacement state
[ARC Fill] New block => Insert 0x3c10721c0 into T1
[ARC Fill] New block => Insert 0x3c1072200 into T1
[ARC Fill] New block => Insert 0x3c1072240 into T1
Updating replacement state
Updating replacement state
[ARC Fill] New block => Insert 0x3c1072280 into T1
[ARC Fill] New block => Insert 0x3c10722c0 into T1
[ARC Fill] New block => Insert 0x6a97f040 into T1
Updating replacement state
[ARC Fill] New block => Insert 0x20ecf5580 into T1
Updating replacement state
[ARC Fill] New block => Insert 0x6a97f080 into T1
Updating replacement state
[ARC Fill] New block => Insert 0x6a97f0c0 into T1
Updating replacement state
[ARC Fill] New block => Insert 0x3028c7540 into T1
Updating replacement state
[ARC Fill] New block => Insert 0x31173e540 into T1
Updating replacement state
Updating replacement state
[ARC Fill] New block => Insert 0x31173e580 into T1
[ARC Fill] New block => Insert 0x31173e5c0 into T1
Updating replacement state
[ARC Fill] New block => Insert 0x12c6fa340 into T1
Updating replacement state
[ARC Fill] New block => Insert 0x3028c7040 into T1
Updating replacement state
Updating replacement state
[ARC Fill] New block => Insert 0x321e89040 into T1
[ARC Fill] New block => Insert 0x321e89080 into T1
Updating replacement state
[ARC Fill] New block => Insert 0x339e7f8c0 into T1
Updating replacement state
Updating replacement state
[ARC Fill] New block => Insert 0x321e89900 into T1
[ARC Fill] New block => Insert 0x321e89940 into T1
Updating replacement state
Updating replacement state
[ARC Fill] New block => Insert 0x6a97f100 into T1
[ARC Fill] New block => Insert 0x6a97f140 into T1
Updating replacement state
[ARC Fill] New block => Insert 0x9cff2c80 into T1
Updating replacement state
[ARC Fill] New block => Insert 0x251707c80 into T1
Updating replacement state
[ARC Fill] New block => Insert 0x180f0db80 into T1
Updating replacement state
[ARC Fill] New block => Insert 0x6a97f180 into T1
Updating replacement state
Updating replacement state
[ARC Fill] New block => Insert 0x180f0dbc0 into T1
Updating replacement state
Updating replacement state
[ARC Fill] New block => Insert 0x180f0dc00 into T1
Updating replacement state
Updating replacement state
Updating replacement state
[ARC Fill] New block => Insert 0x20ecf5200 into T1
[ARC Fill] New block => Insert 0x20ecf5240 into T1
[ARC Fill] New block => Insert 0x20ecf5280 into T1
[ARC Fill] New block => Insert 0x6a97fb40 into T1
[ARC Fill] New block => Insert 0x6a97fb80 into T1
Updating replacement state
Updating replacement state
Updating replacement state
[ARC Fill] New block => Insert 0x180f0dc40 into T1
[ARC Fill] New block => Insert 0x180f0dc80 into T1
Updating replacement state
[ARC Fill] New block => Insert 0x180f0dcc0 into T1
Updating replacement state
[ARC Fill] New block => Insert 0x20ecf51c0 into T1
[ARC Fill] New block => Insert 0x180f0dd00 into T1
Updating replacement state
Updating replacement state
[ARC Fill] New block => Insert 0x20ecf52c0 into T1
[ARC Fill] New block => Insert 0x180f0dd40 into T1
Updating replacement state
Updating replacement state
Updating replacement state
Updating replacement state
[ARC Fill] New block => Insert 0x20ecf5300 into T1
[ARC Fill] New block => Insert 0x6a97f200 into T1
[ARC Fill] New block => Insert 0x6a97f240 into T1
[ARC Fill] New block => Insert 0x6a97f1c0 into T1
Updating replacement state
Updating replacement state
Updating replacement state
[ARC Fill] New block => Insert 0x20ecf5540 into T1
[ARC Fill] New block => Insert 0x6a97f280 into T1
[ARC Fill] New block => Insert 0x6a97f2c0 into T1
Updating replacement state
[ARC Fill] New block => Insert 0x6a97f300 into T1
Updating replacement state
Updating replacement state
Updating replacement state
Updating replacement state
Updating replacement state
[ARC Fill] New block => Insert 0x20ecf59c0 into T1
[ARC Fill] New block => Insert 0x20ecf5a00 into T1
Updating replacement state
Updating replacement state
Updating replacement state
[ARC Fill] New block => Insert 0x20ecf5b80 into T1
[ARC Fill] New block => Insert 0x20ecf5740 into T1
[ARC Fill] New block => Insert 0x20ecf5ac0 into T1
[ARC Fill] New block => Insert 0x20ecf5a80 into T1
[ARC Fill] New block => Insert 0x20ecf5a40 into T1
[ARC Fill] New block => Insert 0x3a270f4c0 into T1
Updating replacement state
[ARC Fill] New block => Insert 0x3a270f580 into T1
Updating replacement state
Updating replacement state
[ARC Fill] New block => Insert 0x6a97f340 into T1
[ARC Fill] New block => Insert 0xd9fe7000 into T1
Updating replacement state
[ARC Fill] New block => Insert 0x1899c9000 into T1
Updating replacement state
Updating replacement state
[ARC Fill] New block => Insert 0x20ecf5980 into T1
[ARC Fill] New block => Insert 0x1899c9040 into T1
Updating replacement state
Updating replacement state
[ARC Fill] New block => Insert 0x6a97f480 into T1
[ARC Fill] New block => Insert 0x6a97f440 into T1
Updating replacement state
Updating replacement state
[ARC Fill] New block => Insert 0x6a97f380 into T1
[ARC Fill] New block => Insert 0x1899c9080 into T1
Updating replacement state
Updating replacement state
Updating replacement state
Updating replacement state
[ARC Fill] New block => Insert 0x1899c90c0 into T1
[ARC Fill] New block => Insert 0x1899c9140 into T1
[ARC Fill] New block => Insert 0x1899c9100 into T1
[ARC Fill] New block => Insert 0x1899c9180 into T1
Updating replacement state
[ARC Fill] New block => Insert 0x6a97f3c0 into T1
Updating replacement state
[ARC Fill] New block => Insert 0x1899c9340 into T1
Updating replacement state
[ARC Fill] New block => Insert 0x6a97f400 into T1
Updating replacement state
Updating replacement state
[ARC Fill] New block => Insert 0x20ecf57c0 into T1
[ARC Fill] New block => Insert 0x6a97f800 into T1
Updating replacement state
[ARC Fill] New block => Insert 0x6a97fa80 into T1
Updating replacement state
Updating replacement state
[ARC Fill] New block => Insert 0x6a97fb00 into T1
[ARC Fill] New block => Insert 0x6a97fac0 into T1
Updating replacement state
Updating replacement state
[ARC Fill] New block => Insert 0x1899c9380 into T1
[ARC Fill] New block => Insert 0x1899c93c0 into T1
Updating replacement state
Updating replacement state
Updating replacement state
Updating replacement state
[ARC Fill] New block => Insert 0x20ecf5780 into T1
[ARC Fill] New block => Insert 0x20ecf5840 into T1
[ARC Fill] New block => Insert 0x20ecf58c0 into T1
[ARC Fill] New block => Insert 0x1899c9400 into T1
Updating replacement state
Updating replacement state
Updating replacement state
[ARC Fill] New block => Insert 0x6a97f4c0 into T1
[ARC Fill] New block => Insert 0x6a97f500 into T1
[ARC Fill] New block => Insert 0x6a97f540 into T1
Updating replacement state
Updating replacement state
Updating replacement state
[ARC Fill] New block => Insert 0x1aafb66c0 into T1
[ARC Fill] New block => Insert 0x6a97f580 into T1
[ARC Fill] New block => Insert 0x20ecf5800 into T1
Updating replacement state
Updating replacement state
[ARC Fill] New block => Insert 0x6a97f5c0 into T1
[ARC Fill] New block => Insert 0x6a97f600 into T1
Updating replacement state
[ARC Fill] New block => Insert 0x6a97f640 into T1
Updating replacement state
[ARC Fill] New block => Insert 0x6a97f680 into T1
Updating replacement state
[ARC Fill] New block => Insert 0x20ecf5880 into T1
Updating replacement state
[ARC Fill] New block => Insert 0x6a97f6c0 into T1
Updating replacement state
[ARC Fill] New block => Insert 0x6a97f700 into T1
Updating replacement state
Updating replacement state
[ARC Fill] New block => Insert 0x1899c92c0 into T1
[ARC Fill] New block => Insert 0x6a97f740 into T1
Updating replacement state
Updating replacement state
[ARC Fill] New block => Insert 0x6a97f780 into T1
Updating replacement state
Updating replacement state
[ARC Fill] New block => Insert 0x20ecf5b40 into T1
[ARC Fill] New block => Insert 0x136aaa400 into T1
[ARC Fill] New block => Insert 0x136aaa3c0 into T1
Updating replacement state
[ARC Fill] New block => Insert 0x136aaa440 into T1
Updating replacement state
Updating replacement state
[ARC Fill] New block => Insert 0x136aaa480 into T1
[ARC Fill] New block => Insert 0x136aaa4c0 into T1
Updating replacement state
Updating replacement state
[ARC Fill] New block => Insert 0x1899c9780 into T1
Updating replacement state
[ARC Fill] New block => Insert 0x6a97f7c0 into T1
Updating replacement state
Updating replacement state
[ARC Fill] New block => Insert 0x3734ecf40 into T1
Updating replacement state
[ARC Fill] New block => Insert 0x6a97fc00 into T1
[ARC Fill] New block => Insert 0x6a97fc40 into T1
Updating replacement state
[ARC Fill] New block => Insert 0x3734ecf80 into T1
[ARC Fill] New block => Insert 0x3028c7bc0 into T1
Updating replacement state
Updating replacement state
[ARC Fill] New block => Insert 0x211d14c00 into T1
[ARC Fill] New block => Insert 0x211d14bc0 into T1
Updating replacement state
[ARC Fill] New block => Insert 0x3028c7780 into T1
Updating replacement state
Updating replacement state
[ARC Fill] New block => Insert 0x3966a7780 into T1
[ARC Fill] New block => Insert 0x3966a77c0 into T1
Updating replacement state
Updating replacement state
[ARC Fill] New block => Insert 0x2f945b5c0 into T1
[ARC Fill] New block => Insert 0x2f945b580 into T1
Updating replacement state
[ARC Fill] New block => Insert 0x3966a7800 into T1
Updating replacement state
[ARC Fill] New block => Insert 0x3966a7840 into T1
Updating replacement state
[ARC Fill] New block => Insert 0x3966a7880 into T1
Updating replacement state
[ARC Fill] New block => Insert 0x3966a78c0 into T1
Updating replacement state
[ARC Fill] New block => Insert 0x3966a7900 into T1
Updating replacement state
[ARC Fill] New block => Insert 0x1899c97c0 into T1
Updating replacement state
Updating replacement state
[ARC Fill] New block => Insert 0x3966a7940 into T1
[ARC Fill] New block => Insert 0x3966a7980 into T1
Updating replacement state
Updating replacement state
[ARC Fill] New block => Insert 0x3966a7ac0 into T1
[ARC Fill] New block => Insert 0x3966a7a80 into T1
Updating replacement state
[ARC Fill] New block => Insert 0x3966a7b00 into T1
Updating replacement state
[ARC Fill] New block => Insert 0x2f945b540 into T1
Updating replacement state
Updating replacement state
Updating replacement state
[ARC Fill] New block => Insert 0x3966a7b40 into T1
[ARC Fill] New block => Insert 0x3966a7bc0 into T1
[ARC Fill] New block => Insert 0x3966a7b80 into T1
Updating replacement state
[ARC Fill] New block => Insert 0x3966a7f40 into T1
Updating replacement state
Updating replacement state
[ARC Fill] New block => Insert 0x3966a7c40 into T1
[ARC Fill] New block => Insert 0x3966a7c00 into T1
Updating replacement state
Updating replacement state
Updating replacement state
[ARC Fill] New block => Insert 0x3966a7c80 into T1
[ARC Fill] New block => Insert 0x3966a7cc0 into T1
[ARC Fill] New block => Insert 0x20ecf5bc0 into T1
Updating replacement state
[ARC Fill] New block => Insert 0x3dae642c0 into T1
Updating replacement state
Updating replacement state
[ARC Fill] New block => Insert 0x12c6fab00 into T1
[ARC Fill] New block => Insert 0x3966a7d00 into T1
Updating replacement state
Updating replacement state
[ARC Fill] New block => Insert 0x20ecf5c40 into T1
[ARC Fill] New block => Insert 0x3966a7d40 into T1
Updating replacement state
[ARC Fill] New block => Insert 0x3966a7d80 into T1
Updating replacement state
Updating replacement state
[ARC Fill] New block => Insert 0x20ecf5c00 into T1
[ARC Fill] New block => Insert 0x3966a7dc0 into T1
Updating replacement state
Updating replacement state
[ARC Fill] New block => Insert 0x3966a7e00 into T1
[ARC Fill] New block => Insert 0x3966a7e40 into T1
Updating replacement state
[ARC Fill] New block => Insert 0x3966a7e80 into T1
Updating replacement state
[ARC Fill] New block => Insert 0x3966a7a40 into T1
Updating replacement state
Updating replacement state
Updating replacement state
[ARC Fill] New block => Insert 0x211d14c40 into T1
[ARC Fill] New block => Insert 0x211d14c80 into T1
Updating replacement state
[ARC Fill] New block => Insert 0x1aafb6940 into T1
Updating replacement state
[ARC Fill] New block => Insert 0x211d14cc0 into T1
Updating replacement state
[ARC Fill] New block => Insert 0x20ecf5c80 into T1
[ARC Fill] New block => Insert 0x3dae64440 into T1
Updating replacement state
Updating replacement state
Updating replacement state
[ARC Fill] New block => Insert 0x20ecf5cc0 into T1
[ARC Fill] New block => Insert 0x211d14d00 into T1
[ARC Fill] New block => Insert 0x211d14d40 into T1
Updating replacement state
[ARC Fill] New block => Insert 0x3734eca80 into T1
Updating replacement state
Updating replacement state
[ARC Fill] New block => Insert 0x3734ecac0 into T1
Updating replacement state
Updating replacement state
Updating replacement state
[ARC Fill] New block => Insert 0x20ecf5d00 into T1
Updating replacement state
[ARC Fill] New block => Insert 0x20ecf5040 into T1
[ARC Fill] New block => Insert 0x20ecf5d40 into T1
[ARC Fill] New block => Insert 0x20ecf5d80 into T1
[ARC Fill] New block => Insert 0x211d14d80 into T1
Updating replacement state
[ARC Fill] New block => Insert 0x211d14e00 into T1
Updating replacement state
[ARC Fill] New block => Insert 0x211d14f00 into T1
Updating replacement state
[ARC Fill] New block => Insert 0x211d14dc0 into T1
Updating replacement state
[ARC Fill] New block => Insert 0x211d14e40 into T1
Updating replacement state
[ARC Fill] New block => Insert 0x2f5d8cd80 into T1
Updating replacement state
[ARC Fill] New block => Insert 0x2f5d8ce00 into T1
Updating replacement state
Updating replacement state
[ARC Fill] New block => Insert 0x2f5d8ce40 into T1
[ARC Fill] New block => Insert 0x2f5d8ce80 into T1
Updating replacement state
[ARC Fill] New block => Insert 0x3dae64300 into T1
Updating replacement state
[ARC Fill] New block => Insert 0x211d14e80 into T1
Updating replacement state
[ARC Fill] New block => Insert 0x211d14ec0 into T1
Updating replacement state
Updating replacement state
[ARC Fill] New block => Insert 0x211d14600 into T1
[ARC Fill] New block => Insert 0x211d14640 into T1
Updating replacement state
[ARC Fill] New block => Insert 0x136aaab00 into T1
Updating replacement state
[ARC Fill] New block => Insert 0x136aaab40 into T1
Updating replacement state
[ARC Fill] New block => Insert 0x211d14940 into T1
Updating replacement state
[ARC Fill] New block => Insert 0x211d14700 into T1
Updating replacement state
Updating replacement state
Updating replacement state
Updating replacement state
[ARC Fill] New block => Insert 0x20ecf5dc0 into T1
[ARC Fill] New block => Insert 0x20ecf5e00 into T1
[ARC Fill] New block => Insert 0x20ecf5e40 into T1
[ARC Fill] New block => Insert 0x211d14740 into T1
Updating replacement state
[ARC Fill] New block => Insert 0x211d14780 into T1
Updating replacement state
[ARC Fill] New block => Insert 0x211d147c0 into T1
Updating replacement state
Updating replacement state
[ARC Fill] New block => Insert 0x211d14800 into T1
[ARC Fill] New block => Insert 0x211d14840 into T1
Updating replacement state
Updating replacement state
[ARC Fill] New block => Insert 0x211d14880 into T1
[ARC Fill] New block => Insert 0x211d148c0 into T1
Updating replacement state
[ARC Fill] New block => Insert 0x211d14900 into T1
Updating replacement state
[ARC Fill] New block => Insert 0x211d149c0 into T1
Updating replacement state
[ARC Fill] New block => Insert 0x9031ff00 into T1
Updating replacement state
[ARC Fill] New block => Insert 0x136aaa800 into T1
Updating replacement state
[ARC Fill] New block => Insert 0x211d14680 into T1
Updating replacement state
[ARC Fill] New block => Insert 0x211d142c0 into T1
Updating replacement state
Updating replacement state
Updating replacement state
[ARC Fill] New block => Insert 0x2f5d8cb00 into T1
[ARC Fill] New block => Insert 0x2f5d8cb40 into T1
[ARC Fill] New block => Insert 0x2f945b500 into T1
Updating replacement state
[ARC Fill] New block => Insert 0x2f5d8cb80 into T1
Updating replacement state
[ARC Fill] New block => Insert 0x2f5d8cc40 into T1
Updating replacement state
[ARC Fill] New block => Insert 0x211d14300 into T1
Updating replacement state
[ARC Fill] New block => Insert 0x31173e4c0 into T1
Updating replacement state
[ARC Fill] New block => Insert 0x31173e500 into T1
Updating replacement state
[ARC Fill] New block => Insert 0x3dae64340 into T1
Updating replacement state
[ARC Fill] New block => Insert 0x211d14980 into T1
Updating replacement state
Updating replacement state
[ARC Fill] New block => Insert 0x20ecf5e80 into T1
[ARC Fill] New block => Insert 0x20ecf5ec0 into T1
Updating replacement state
[ARC Fill] New block => Insert 0x20ecf5f00 into T1
Updating replacement state
[ARC Fill] New block => Insert 0x2f5d8c840 into T1
Updating replacement state
Updating replacement state
[ARC Fill] New block => Insert 0x2f5d8c8c0 into T1
[ARC Fill] New block => Insert 0x2f5d8c880 into T1
Updating replacement state
Updating replacement state
[ARC Fill] New block => Insert 0x2f5d8c900 into T1
[ARC Fill] New block => Insert 0x2f5d8c940 into T1
Updating replacement state
[ARC Fill] New block => Insert 0x2f5d8c980 into T1
Updating replacement state
[ARC Fill] New block => Insert 0x3dae64480 into T1
Updating replacement state
[ARC Fill] New block => Insert 0x3028c7f40 into T1
Updating replacement state
[ARC Fill] New block => Insert 0x36bcf5f40 into T1
Updating replacement state
[ARC Fill] New block => Insert 0x36bcf5f80 into T1
Updating replacement state
Updating replacement state
Updating replacement state
[ARC Fill] New block => Insert 0x6a97fc80 into T1
[ARC Fill] New block => Insert 0x6a97fcc0 into T1
Updating replacement state
[ARC Fill] New block => Insert 0x6a97fd00 into T1
[ARC Fill] New block => Insert 0x339e7f000 into T1
Updating replacement state
[ARC Fill] New block => Insert 0x339e7f180 into T1
Updating replacement state
Updating replacement state
[ARC Fill] New block => Insert 0x6a97fd80 into T1
[ARC Fill] New block => Insert 0x6a97fd40 into T1
Updating replacement state
Updating replacement state
[ARC Fill] New block => Insert 0x2d9355e00 into T1
Updating replacement state
[ARC Fill] New block => Insert 0x2d9355e40 into T1
[ARC Fill] New block => Insert 0x6a97fdc0 into T1
Updating replacement state
[ARC Fill] New block => Insert 0x3028c7fc0 into T1
Updating replacement state
[ARC Fill] New block => Insert 0x2493e5fc0 into T1
Updating replacement state
Updating replacement state
[ARC Fill] New block => Insert 0x2d9355f80 into T1
[ARC Fill] New block => Insert 0x6a97fe00 into T1
Updating replacement state
[ARC Fill] New block => Insert 0x6a97fe40 into T1
Updating replacement state
[ARC Fill] New block => Insert 0x31173e000 into T1
Updating replacement state
Updating replacement state
[ARC Fill] New block => Insert 0x6a97fe80 into T1
[ARC Fill] New block => Insert 0x6a97fec0 into T1
Updating replacement state
Updating replacement state
[ARC Fill] New block => Insert 0x3a8fef600 into T1
[ARC Fill] New block => Insert 0x3a8fef5c0 into T1
Updating replacement state
[ARC Fill] New block => Insert 0x3966a7200 into T1
Updating replacement state
Updating replacement state
Updating replacement state
[ARC Fill] New block => Insert 0x3a8fef700 into T1
[ARC Fill] New block => Insert 0x3a8fef680 into T1
[ARC Fill] New block => Insert 0x3a8fef6c0 into T1
Updating replacement state
Updating replacement state
[ARC Fill] New block => Insert 0x3a8feff80 into T1
[ARC Fill] New block => Insert 0x3a8feff40 into T1
Updating replacement state
[ARC Fill] New block => Insert 0x3a8fef740 into T1
Updating replacement state
[ARC Fill] New block => Insert 0x3a8fef8c0 into T1
Updating replacement state
[ARC Fill] New block => Insert 0x3028c7d80 into T1
Updating replacement state
[ARC Fill] New block => Insert 0x6e620d80 into T1
Updating replacement state
[ARC Fill] New block => Insert 0x3c1072b40 into T1
Updating replacement state
[ARC Fill] New block => Insert 0x6e620dc0 into T1
Updating replacement state
[ARC Fill] New block => Insert 0x3a8fef800 into T1
Updating replacement state
Updating replacement state
[ARC Fill] New block => Insert 0x136aaadc0 into T1
[ARC Fill] New block => Insert 0x136aaae00 into T1
Updating replacement state
Updating replacement state
Updating replacement state
Updating replacement state
[ARC Fill] New block => Insert 0x2f945b440 into T1
[ARC Fill] New block => Insert 0x31173e280 into T1
[ARC Fill] New block => Insert 0x31173e240 into T1
[ARC Fill] New block => Insert 0x2f945b400 into T1
Updating replacement state
Updating replacement state
[ARC Fill] New block => Insert 0x2f945b480 into T1
[ARC Fill] New block => Insert 0x136aaae40 into T1
Updating replacement state
[ARC Fill] New block => Insert 0x3a8fef480 into T1
Updating replacement state
Updating replacement state
Updating replacement state
[ARC Fill] New block => Insert 0x211d14fc0 into T1
[ARC Fill] New block => Insert 0x211d14f80 into T1
[ARC Fill] New block => Insert 0x3028c7000 into T1
Updating replacement state
Updating replacement state
Updating replacement state
[ARC Fill] New block => Insert 0x2d9355940 into T1
[ARC Fill] New block => Insert 0x2f945b000 into T1
[ARC Fill] New block => Insert 0x2f945b3c0 into T1
Updating replacement state
[ARC Fill] New block => Insert 0x14bb0e000 into T1
Updating replacement state
[ARC Fill] New block => Insert 0x3028c7880 into T1
Updating replacement state
[ARC Fill] New block => Insert 0x124eed880 into T1
Updating replacement state
[ARC Fill] New block => Insert 0x124eed8c0 into T1
Updating replacement state
[ARC Fill] New block => Insert 0x14bb0e040 into T1
Updating replacement state
[ARC Fill] New block => Insert 0x14bb0e0c0 into T1
Updating replacement state
Updating replacement state
Updating replacement state
[ARC Fill] New block => Insert 0x14bb0e2c0 into T1
[ARC Fill] New block => Insert 0x2f945b040 into T1
[ARC Fill] New block => Insert 0x2f945b080 into T1
Updating replacement state
Updating replacement state
[ARC Fill] New block => Insert 0x14bb0e7c0 into T1
[ARC Fill] New block => Insert 0x14bb0e780 into T1
Updating replacement state
Updating replacement state
[ARC Fill] New block => Insert 0x14bb0e840 into T1
[ARC Fill] New block => Insert 0x14bb0e800 into T1
Updating replacement state
[ARC Fill] New block => Insert 0x14bb0e880 into T1
Updating replacement state
[ARC Fill] New block => Insert 0x14bb0e640 into T1
Updating replacement state
[ARC Fill] New block => Insert 0x14bb0e6c0 into T1
Updating replacement state
[ARC Fill] New block => Insert 0x14bb0e300 into T1
Updating replacement state
[ARC Fill] New block => Insert 0x3028c7200 into T1
Updating replacement state
Updating replacement state
Updating replacement state
Updating replacement state
[ARC Fill] New block => Insert 0x2177ee200 into T1
[ARC Fill] New block => Insert 0x2177ee2c0 into T1
[ARC Fill] New block => Insert 0x2177ee280 into T1
Updating replacement state
[ARC Fill] New block => Insert 0x2177ee240 into T1
[ARC Fill] New block => Insert 0xd9fe7fc0 into T1
Updating replacement state
Updating replacement state
Updating replacement state
[ARC Fill] New block => Insert 0x2db79cfc0 into T1
[ARC Fill] New block => Insert 0x2db79cf00 into T1
[ARC Fill] New block => Insert 0x2db79cec0 into T1
Updating replacement state
[ARC Fill] New block => Insert 0x2db79ce40 into T1
Updating replacement state
Updating replacement state
[ARC Fill] New block => Insert 0x2177ee340 into T1
[ARC Fill] New block => Insert 0x2177ee300 into T1
Updating replacement state
Updating replacement state
[ARC Fill] New block => Insert 0x2db79ce80 into T1
[ARC Fill] New block => Insert 0x2177ee380 into T1
Updating replacement state
Updating replacement state
[ARC Fill] New block => Insert 0x3d96d9b80 into T1
[ARC Fill] New block => Insert 0x3d96d9bc0 into T1
Updating replacement state
Updating replacement state
Updating replacement state
Updating replacement state
[ARC Fill] New block => Insert 0x2db79cdc0 into T1
[ARC Fill] New block => Insert 0x2db79ce00 into T1
[ARC Fill] New block => Insert 0x10e027e80 into T1
[ARC Fill] New block => Insert 0x10e027ec0 into T1
Updating replacement state
[ARC Fill] New block => Insert 0x10e027f00 into T1
Updating replacement state
[ARC Fill] New block => Insert 0x3d96d9f00 into T1
Updating replacement state
[ARC Fill] New block => Insert 0x2177ee3c0 into T1
Updating replacement state
[ARC Fill] New block => Insert 0x2177ee500 into T1
Updating replacement state
Updating replacement state
[ARC Fill] New block => Insert 0x2177ee480 into T1
[ARC Fill] New block => Insert 0x2177ee4c0 into T1
Updating replacement state
[ARC Fill] New block => Insert 0x2177ee540 into T1
Updating replacement state
[ARC Fill] New block => Insert 0x2177ee580 into T1
Updating replacement state
[ARC Fill] New block => Insert 0x10e027dc0 into T1
Updating replacement state
[ARC Fill] New block => Insert 0x2177ee5c0 into T1
Updating replacement state
Updating replacement state
Updating replacement state
[ARC Fill] New block => Insert 0x2177ee400 into T1
[ARC Fill] New block => Insert 0x2177ee440 into T1
[ARC Fill] New block => Insert 0x2db79cf40 into T1
Updating replacement state
[ARC Fill] New block => Insert 0x14bb0e340 into T1
Updating replacement state
[ARC Fill] New block => Insert 0x14bb0e500 into T1
Updating replacement state
[ARC Fill] New block => Insert 0x30a9a1200 into T1
Updating replacement state
[ARC Fill] New block => Insert 0x20ecf5080 into T1
Updating replacement state
[ARC Fill] New block => Insert 0x30a9a1500 into T1
Updating replacement state
Updating replacement state
[ARC Fill] New block => Insert 0x124eed600 into T1
[ARC Fill] New block => Insert 0x2db79cf80 into T1
Updating replacement state
[ARC Fill] New block => Insert 0x124eed640 into T1
Updating replacement state
[ARC Fill] New block => Insert 0x10e027e00 into T1
Updating replacement state
[ARC Fill] New block => Insert 0x124eed680 into T1
Updating replacement state
Updating replacement state
[ARC Fill] New block => Insert 0x31173e100 into T1
[ARC Fill] New block => Insert 0x31173e0c0 into T1
Updating replacement state
[ARC Fill] New block => Insert 0x31173e140 into T1
Updating replacement state
[ARC Fill] New block => Insert 0x31173e080 into T1
Updating replacement state
Updating replacement state
[ARC Fill] New block => Insert 0x30a9a1540 into T1
Updating replacement state
[ARC Fill] New block => Insert 0x30a9a1580 into T1
Updating replacement state
[ARC Fill] New block => Insert 0x9cff2940 into T1
[ARC Fill] New block => Insert 0x9cff2980 into T1
Updating replacement state
Updating replacement state
[ARC Fill] New block => Insert 0x338d3d940 into T1
[ARC Fill] New block => Insert 0xfaf99980 into T1
Updating replacement state
Updating replacement state
Updating replacement state
[ARC Fill] New block => Insert 0x3bdd76000 into T1
[ARC Fill] New block => Insert 0xccf33c00 into T1
[ARC Fill] New block => Insert 0xccf33c40 into T1
Updating replacement state
[ARC Fill] New block => Insert 0x30a9a1cc0 into T1
Updating replacement state
Updating replacement state
[ARC Fill] New block => Insert 0x30a9a1280 into T1
[ARC Fill] New block => Insert 0x30a9a1240 into T1
Updating replacement state
[ARC Fill] New block => Insert 0x1aafb6840 into T1
Updating replacement state
Updating replacement state
[ARC Fill] New block => Insert 0x30a9a1300 into T1
[ARC Fill] New block => Insert 0x30a9a12c0 into T1
Updating replacement state
Updating replacement state
[ARC Fill] New block => Insert 0x30a9a1340 into T1
Updating replacement state
Updating replacement state
[ARC Fill] New block => Insert 0xfaf99840 into T1
[ARC Fill] New block => Insert 0x30a9a1100 into T1
[ARC Fill] New block => Insert 0x30a9a1140 into T1
Updating replacement state
Updating replacement state
[ARC Fill] New block => Insert 0xfaf99140 into T1
[ARC Fill] New block => Insert 0x2c9896840 into T1
Updating replacement state
Updating replacement state
[ARC Fill] New block => Insert 0x30a9a11c0 into T1
[ARC Fill] New block => Insert 0x182d3140 into T1
Updating replacement state
Updating replacement state
[ARC Fill] New block => Insert 0xfaf99100 into T1
[ARC Fill] New block => Insert 0xfaf99240 into T1
Updating replacement state
Updating replacement state
[ARC Fill] New block => Insert 0x6dfeb100 into T1
[ARC Fill] New block => Insert 0x1064c0240 into T1
Updating replacement state
Updating replacement state
[ARC Fill] New block => Insert 0xfaf99540 into T1
[ARC Fill] New block => Insert 0x342b3e240 into T1
Updating replacement state
[ARC Fill] New block => Insert 0x24caf8540 into T1
Updating replacement state
Updating replacement state
[ARC Fill] New block => Insert 0xfaf99b80 into T1
[ARC Fill] New block => Insert 0x1064c0bc0 into T1
Updating replacement state
[ARC Fill] New block => Insert 0x25b62fb80 into T1
Updating replacement state
Updating replacement state
[ARC Fill] New block => Insert 0xfaf997c0 into T1
[ARC Fill] New block => Insert 0x24caf8080 into T1
Updating replacement state
[ARC Fill] New block => Insert 0x3511377c0 into T1
Updating replacement state
Updating replacement state
[ARC Fill] New block => Insert 0x3511371c0 into T1
[ARC Fill] New block => Insert 0x1064c0e00 into T1
Updating replacement state
[ARC Fill] New block => Insert 0x30a9a1180 into T1
Updating replacement state
Updating replacement state
Updating replacement state
[ARC Fill] New block => Insert 0x351137200 into T1
[ARC Fill] New block => Insert 0x30a9a1380 into T1
[ARC Fill] New block => Insert 0x30a9a13c0 into T1
Updating replacement state
[ARC Fill] New block => Insert 0x30a9a1400 into T1
Updating replacement state
[ARC Fill] New block => Insert 0x30a9a19c0 into T1
Updating replacement state
[ARC Fill] New block => Insert 0x30a9a1b80 into T1
Updating replacement state
[ARC Fill] New block => Insert 0x30a9a1bc0 into T1
Updating replacement state
[ARC Fill] New block => Insert 0x1064c0e40 into T1
Updating replacement state
[ARC Fill] New block => Insert 0x30a9a1c00 into T1
Updating replacement state
[ARC Fill] New block => Insert 0x30a9a1800 into T1
Updating replacement state
Updating replacement state
[ARC Fill] New block => Insert 0x30a9a1840 into T1
[ARC Fill] New block => Insert 0x351137240 into T1
Updating replacement state
[ARC Fill] New block => Insert 0x14bb0e540 into T1
Updating replacement state
[ARC Fill] New block => Insert 0x3d96d9c00 into T1
Updating replacement state
[ARC Fill] New block => Insert 0x10e027f80 into T1
Updating replacement state
[ARC Fill] New block => Insert 0x3d96d9c40 into T1
Updating replacement state
[ARC Fill] New block => Insert 0x43736b80 into T1
Updating replacement state
Hit: 0x2d9355b80
T1: 0x20ecf5b80 0x2d9355b80 
Updating replacement state
[ARC Fill] New block => Insert 0x20fa62b80 into T1
Updating replacement state
[ARC Fill] New block => Insert 0x3d96d9f80 into T1
Updating replacement state
[ARC Fill] New block => Insert 0x3734eca40 into T1
Updating replacement state
Updating replacement state
Updating replacement state
[ARC Fill] New block => Insert 0x3d96d9d00 into T1
[ARC Fill] New block => Insert 0x3d96d9cc0 into T1
[ARC Fill] New block => Insert 0x3d96d9d40 into T1
Updating replacement state
Updating replacement state
[ARC Fill] New block => Insert 0x2f945b0c0 into T1
[ARC Fill] New block => Insert 0x3d96d9d80 into T1
Updating replacement state
[ARC Fill] New block => Insert 0x2f945b100 into T1
Updating replacement state
Updating replacement state
Updating replacement state
Updating replacement state
Updating replacement state
[ARC Fill] New block => Insert 0x2f945b140 into T1
[ARC Fill] New block => Insert 0x2f945b180 into T1
[ARC Fill] New block => Insert 0x2f945b1c0 into T1
[ARC Fill] New block => Insert 0x2f945b240 into T1
[ARC Fill] New block => Insert 0x2f945b200 into T1
Updating replacement state
[ARC Fill] New block => Insert 0x2177ee080 into T1
Updating replacement state
Updating replacement state
[ARC Fill] New block => Insert 0x3d96d9e00 into T1
[ARC Fill] New block => Insert 0x3d96d9e40 into T1
Updating replacement state
[ARC Fill] New block => Insert 0x2f945b280 into T1
Updating replacement state
[ARC Fill] New block => Insert 0x2177ee000 into T1
Updating replacement state
Updating replacement state
[ARC Fill] New block => Insert 0x2f945b2c0 into T1
[ARC Fill] New block => Insert 0x3d96d9c80 into T1
Updating replacement state
[ARC Fill] New block => Insert 0x14bb0e580 into T1
Updating replacement state
Updating replacement state
[ARC Fill] New block => Insert 0x14bb0e3c0 into T1
[ARC Fill] New block => Insert 0x14bb0e380 into T1
Updating replacement state
Updating replacement state
[ARC Fill] New block => Insert 0x14bb0e140 into T1
[ARC Fill] New block => Insert 0x14bb0e180 into T1
Updating replacement state
Updating replacement state
[ARC Fill] New block => Insert 0x2177ee880 into T1
[ARC Fill] New block => Insert 0x2177ee840 into T1
Updating replacement state
[ARC Fill] New block => Insert 0x36bcf5fc0 into T1
Updating replacement state
[ARC Fill] New block => Insert 0x2177ee8c0 into T1
Updating replacement state
[ARC Fill] New block => Insert 0x2177ee900 into T1
Updating replacement state
[ARC Fill] New block => Insert 0x2d9355d80 into T1
Updating replacement state
Updating replacement state
Updating replacement state
[ARC Fill] New block => Insert 0x2177ee9c0 into T1
[ARC Fill] New block => Insert 0x2177ee980 into T1
[ARC Fill] New block => Insert 0x2177eea00 into T1
Updating replacement state
[ARC Fill] New block => Insert 0x136aaa700 into T1
Updating replacement state
[ARC Fill] New block => Insert 0x9cff2b00 into T1
Updating replacement state
[ARC Fill] New block => Insert 0x3d87a4b00 into T1
Updating replacement state
Updating replacement state
Updating replacement state
Updating replacement state
Updating replacement state
[ARC Fill] New block => Insert 0xcb9a5000 into T1
[ARC Fill] New block => Insert 0xcb9a5480 into T1
[ARC Fill] New block => Insert 0xcb9a52c0 into T1
[ARC Fill] New block => Insert 0xcb9a5300 into T1
[ARC Fill] New block => Insert 0xcb9a5440 into T1
Updating replacement state
Updating replacement state
Updating replacement state
Updating replacement state
[ARC Fill] New block => Insert 0xcb9a53c0 into T1
[ARC Fill] New block => Insert 0xcb9a5380 into T1
[ARC Fill] New block => Insert 0xcb9a5340 into T1
[ARC Fill] New block => Insert 0x3a270f500 into T1
Updating replacement state
[ARC Fill] New block => Insert 0xcb9a54c0 into T1
Updating replacement state
Updating replacement state
Updating replacement state
Updating replacement state
[ARC Fill] New block => Insert 0x2177eea40 into T1
[ARC Fill] New block => Insert 0x2177eea80 into T1
[ARC Fill] New block => Insert 0x2177eeac0 into T1
[ARC Fill] New block => Insert 0xcb9a5280 into T1
Updating replacement state
[ARC Fill] New block => Insert 0x2177eeb00 into T1
Updating replacement state
Updating replacement state
Updating replacement state
[ARC Fill] New block => Insert 0x2177eeb80 into T1
[ARC Fill] New block => Insert 0x2177eebc0 into T1
[ARC Fill] New block => Insert 0x2177eec00 into T1
Updating replacement state
Updating replacement state
Updating replacement state
[ARC Fill] New block => Insert 0x2db79cd00 into T1
[ARC Fill] New block => Insert 0x2177eec40 into T1
[ARC Fill] New block => Insert 0x2db79cd40 into T1
Updating replacement state
Updating replacement state
[ARC Fill] New block => Insert 0x2177eeb40 into T1
[ARC Fill] New block => Insert 0x2db79cd80 into T1
Updating replacement state
Updating replacement state
[ARC Fill] New block => Insert 0x2177eecc0 into T1
[ARC Fill] New block => Insert 0x2177eec80 into T1
Updating replacement state
Updating replacement state
[ARC Fill] New block => Insert 0x2493e5ec0 into T1
[ARC Fill] New block => Insert 0xcb9a5400 into T1
Updating replacement state
[ARC Fill] New block => Insert 0x2177eed00 into T1
Updating replacement state
Updating replacement state
Updating replacement state
[ARC Fill] New block => Insert 0x2177eed40 into T1
[ARC Fill] New block => Insert 0x2177eed80 into T1
[ARC Fill] New block => Insert 0x2177eedc0 into T1
Updating replacement state
Updating replacement state
[ARC Fill] New block => Insert 0x2db79ccc0 into T1
[ARC Fill] New block => Insert 0x2177eee00 into T1
Updating replacement state
[ARC Fill] New block => Insert 0x2177eef80 into T1
Updating replacement state
[ARC Fill] New block => Insert 0x31173e1c0 into T1
Updating replacement state
[ARC Fill] New block => Insert 0x2177eefc0 into T1
Updating replacement state
[ARC Fill] New block => Insert 0x6e620000 into T1
Updating replacement state
Updating replacement state
[ARC Fill] New block => Insert 0x2177eee40 into T1
[ARC Fill] New block => Insert 0x2177eee80 into T1
Updating replacement state
Updating replacement state
[ARC Fill] New block => Insert 0x2177eeec0 into T1
[ARC Fill] New block => Insert 0x2177eef00 into T1
Updating replacement state
Updating replacement state
[ARC Fill] New block => Insert 0x3dae644c0 into T1
[ARC Fill] New block => Insert 0x9cff2ec0 into T1
Updating replacement state
[ARC Fill] New block => Insert 0x16c589ec0 into T1
Updating replacement state
Updating replacement state
Updating replacement state
Updating replacement state
Updating replacement state
Updating replacement state
Updating replacement state
Updating replacement state
Updating replacement state
Updating replacement state
Updating replacement state
Updating replacement state
Updating replacement state
Updating replacement state
Updating replacement state
Updating replacement state
Updating replacement state
[ARC Fill] New block => Insert 0x287615fc0 into T1
[ARC Fill] New block => Insert 0x287615b80 into T1
Updating replacement state
[ARC Fill] New block => Insert 0x287615bc0 into T1
Updating replacement state
Hit: 0x1aafb6b80
T1: 0x43736b80 0x1aafb6b80 
Updating replacement state
[ARC Fill] New block => Insert 0x287615cc0 into T1
[ARC Fill] New block => Insert 0x287615e00 into T1
[ARC Fill] New block => Insert 0x287615e40 into T1
[ARC Fill] New block => Insert 0x287615e80 into T1
[ARC Fill] New block => Insert 0x287615ec0 into T1
[ARC Fill] New block => Insert 0x287615c00 into T1
[ARC Fill] New block => Insert 0x287615c40 into T1
[ARC Fill] New block => Insert 0x287615c80 into T1
[ARC Fill] New block => Insert 0x287615d00 into T1
Updating replacement state
Hit: 0x2d9355c80
T1: 0x287615c80 0x20ecf5c80 0x2d9355c80 
[ARC Fill] New block => Insert 0x287615d40 into T1
[ARC Fill] New block => Insert 0x287615d80 into T1
[ARC Fill] New block => Insert 0x287615dc0 into T1
[ARC Fill] New block => Insert 0x287615f00 into T1
[ARC Fill] New block => Insert 0x287615f80 into T1
[ARC Fill] New block => Insert 0x2177eef40 into T1
[ARC Fill] New block => Insert 0x287615f40 into T1
Updating replacement state
Updating replacement state
[ARC Fill] New block => Insert 0x6e6200c0 into T1
[ARC Fill] New block => Insert 0x6e620080 into T1
Updating replacement state
Updating replacement state
[ARC Fill] New block => Insert 0x6e620100 into T1
[ARC Fill] New block => Insert 0x16c589d00 into T1
Updating replacement state
Hit: 0x1aafb6d00
T1: 0x1aafb6d00 
Updating replacement state
[ARC Fill] New block => Insert 0x20597cd00 into T1
Updating replacement state
Updating replacement state
Updating replacement state
Updating replacement state
[ARC Fill] New block => Insert 0xcb9a5040 into T1
[ARC Fill] New block => Insert 0x20597cd40 into T1
[ARC Fill] New block => Insert 0x20597cd80 into T1
Updating replacement state
Hit: 0x2d9355d40
T1: 0x287615d40 0x20ecf5d40 0x2d9355d40 
[ARC Fill] New block => Insert 0x20597cdc0 into T1
Updating replacement state
Updating replacement state
Updating replacement state
Updating replacement state
[ARC Fill] New block => Insert 0xcb9a5080 into T1
[ARC Fill] New block => Insert 0x6e620500 into T1
[ARC Fill] New block => Insert 0xcb9a5100 into T1
[ARC Fill] New block => Insert 0x6e6204c0 into T1
Updating replacement state
Updating replacement state
Updating replacement state
[ARC Fill] New block => Insert 0x20597ce00 into T1
[ARC Fill] New block => Insert 0x20597ce80 into T1
[ARC Fill] New block => Insert 0x20597ce40 into T1
Updating replacement state
Updating replacement state
Updating replacement state
[ARC Fill] New block => Insert 0xcb9a50c0 into T1
[ARC Fill] New block => Insert 0xcb9a5140 into T1
[ARC Fill] New block => Insert 0x20597cec0 into T1
Updating replacement state
Updating replacement state
Updating replacement state
[ARC Fill] New block => Insert 0xcb9a51c0 into T1
[ARC Fill] New block => Insert 0xcb9a5180 into T1
[ARC Fill] New block => Insert 0x6e620200 into T1
Updating replacement state
Updating replacement state
Updating replacement state
[ARC Fill] New block => Insert 0x6e620240 into T1
[ARC Fill] New block => Insert 0x6e620280 into T1
[ARC Fill] New block => Insert 0x6e6202c0 into T1
Updating replacement state
[ARC Fill] New block => Insert 0x6e620300 into T1
Updating replacement state
[ARC Fill] New block => Insert 0x6e6207c0 into T1
Updating replacement state
[ARC Fill] New block => Insert 0x6e620340 into T1
Updating replacement state
[ARC Fill] New block => Insert 0x6e620380 into T1
Updating replacement state
[ARC Fill] New block => Insert 0x6e6203c0 into T1
Updating replacement state
Updating replacement state
[ARC Fill] New block => Insert 0x6e620400 into T1
Updating replacement state
[ARC Fill] New block => Insert 0x9cff22c0 into T1
[ARC Fill] New block => Insert 0x6e620440 into T1
Updating replacement state
[ARC Fill] New block => Insert 0xb11842c0 into T1
Updating replacement state
[ARC Fill] New block => Insert 0x1956fa200 into T1
Updating replacement state
[ARC Fill] New block => Insert 0x14bb0e080 into T1
Updating replacement state
[ARC Fill] New block => Insert 0x3a8fef4c0 into T1
Updating replacement state
Updating replacement state
[ARC Fill] New block => Insert 0x3a8fef840 into T1
[ARC Fill] New block => Insert 0x3a8fef880 into T1
Updating replacement state
Updating replacement state
[ARC Fill] New block => Insert 0x38e35a5c0 into T1
[ARC Fill] New block => Insert 0x2f945b4c0 into T1
Updating replacement state
Updating replacement state
[ARC Fill] New block => Insert 0x16b35f5c0 into T1
[ARC Fill] New block => Insert 0x16b35f600 into T1
Updating replacement state
[ARC Fill] New block => Insert 0x12c6fa300 into T1
Updating replacement state
Updating replacement state
[ARC Fill] New block => Insert 0x31173e8c0 into T1
[ARC Fill] New block => Insert 0x31173e900 into T1
Updating replacement state
Updating replacement state
[ARC Fill] New block => Insert 0x321e89300 into T1
[ARC Fill] New block => Insert 0x321e892c0 into T1
Updating replacement state
Updating replacement state
[ARC Fill] New block => Insert 0x31173ea40 into T1
[ARC Fill] New block => Insert 0x31173ea00 into T1
Updating replacement state
Updating replacement state
[ARC Fill] New block => Insert 0x321e89800 into T1
[ARC Fill] New block => Insert 0x321e897c0 into T1
Updating replacement state
Updating replacement state
[ARC Fill] New block => Insert 0x31173e980 into T1
[ARC Fill] New block => Insert 0x31173e940 into T1
Updating replacement state
[ARC Fill] New block => Insert 0xb1184040 into T1
Updating replacement state
[ARC Fill] New block => Insert 0x18461e040 into T1
Updating replacement state
Updating replacement state
[ARC Fill] New block => Insert 0xfaf99c00 into T1
[ARC Fill] New block => Insert 0xfaf99e40 into T1
Updating replacement state
Hit: 0x1aafb6c00
T1: 0x1aafb6c00 0x43736c00 
Updating replacement state
Updating replacement state
Updating replacement state
[ARC Fill] New block => Insert 0xc67dae40 into T1
Updating replacement state
Hit: 0x20ecf5e40
T1: 0x287615e40 0x2d9355e40 0x20ecf5e40 
[ARC Fill] New block => Insert 0x28a93ec40 into T1
[ARC Fill] New block => Insert 0x28a93ec00 into T1
Updating replacement state
Updating replacement state
[ARC Fill] New block => Insert 0xfaf99dc0 into T1
[ARC Fill] New block => Insert 0xfaf99b40 into T1
Updating replacement state
Updating replacement state
[ARC Fill] New block => Insert 0x2cc47dc0 into T1
[ARC Fill] New block => Insert 0x32f48ab40 into T1
Updating replacement state
Hit: 0x2d9355b40
T1: 0x20ecf5b40 0x2d9355b40 
Updating replacement state
[ARC Fill] New block => Insert 0x32f48a1c0 into T1
Updating replacement state
[ARC Fill] New block => Insert 0x202bdf7c0 into T1
Updating replacement state
Updating replacement state
[ARC Fill] New block => Insert 0x32f48a680 into T1
[ARC Fill] New block => Insert 0x2cc47300 into T1
Updating replacement state
Updating replacement state
[ARC Fill] New block => Insert 0x202bdfd00 into T1
[ARC Fill] New block => Insert 0x32f48a400 into T1
Updating replacement state
Updating replacement state
[ARC Fill] New block => Insert 0x202bdfa40 into T1
[ARC Fill] New block => Insert 0x32f48a300 into T1
Updating replacement state
Updating replacement state
[ARC Fill] New block => Insert 0x202bdf980 into T1
[ARC Fill] New block => Insert 0x32f48a240 into T1
Updating replacement state
Hit: 0x2f945b980
T1: 0x2f945b980 
Updating replacement state
Updating replacement state
[ARC Fill] New block => Insert 0x202bdfa00 into T1
[ARC Fill] New block => Insert 0x32f48a280 into T1
Updating replacement state
[ARC Fill] New block => Insert 0x202bdf9c0 into T1
Updating replacement state
[ARC Fill] New block => Insert 0x3d96d9e80 into T1
Updating replacement state
Updating replacement state
Updating replacement state
Updating replacement state
Updating replacement state
[ARC Fill] New block => Insert 0xcb9a5980 into T1
Updating replacement state
Hit: 0x1aafb6980
T1: 0x1aafb6980 
[ARC Fill] New block => Insert 0xcb9a5500 into T1
[ARC Fill] New block => Insert 0xcb9a5780 into T1
[ARC Fill] New block => Insert 0xcb9a5800 into T1
[ARC Fill] New block => Insert 0xcb9a5940 into T1
Updating replacement state
Updating replacement state
Updating replacement state
[ARC Fill] New block => Insert 0xcb9a5840 into T1
[ARC Fill] New block => Insert 0xcb9a57c0 into T1
[ARC Fill] New block => Insert 0xcb9a5880 into T1
Updating replacement state
[ARC Fill] New block => Insert 0x3dae64500 into T1
Updating replacement state
Updating replacement state
[ARC Fill] New block => Insert 0xb1184140 into T1
[ARC Fill] New block => Insert 0xb1184d80 into T1
Updating replacement state
Hit: 0x1aafb6d80
T1: 0x1aafb6d80 
Updating replacement state
Updating replacement state
[ARC Fill] New block => Insert 0x168eee140 into T1
[ARC Fill] New block => Insert 0xda4a7d80 into T1
Updating replacement state
Updating replacement state
Updating replacement state
[ARC Fill] New block => Insert 0xda4a7dc0 into T1
[ARC Fill] New block => Insert 0xcb9a5580 into T1
Updating replacement state
[ARC Fill] New block => Insert 0xda4a7e00 into T1
Updating replacement state
Updating replacement state
Hit: 0x1aafb6e00
T1: 0x1aafb6e00 
Updating replacement state
Updating replacement state
Updating replacement state
Updating replacement state
[ARC Fill] New block => Insert 0xcb9a55c0 into T1
[ARC Fill] New block => Insert 0xcb9a5600 into T1
[ARC Fill] New block => Insert 0xda4a7e80 into T1
[ARC Fill] New block => Insert 0xda4a7ec0 into T1
Updating replacement state
Hit: 0x1aafb6ec0
T1: 0x1aafb6ec0 
[ARC Fill] New block => Insert 0xcb9a5540 into T1
[ARC Fill] New block => Insert 0xda4a7e40 into T1
Updating replacement state
Hit: 0x2d9355e40
T1: 0x287615e40 0x2d9355e40 
Updating replacement state
Updating replacement state
[ARC Fill] New block => Insert 0xda4a7f00 into T1
Updating replacement state
[ARC Fill] New block => Insert 0xcb9a5640 into T1
[ARC Fill] New block => Insert 0xda4a7f40 into T1
Updating replacement state
Hit: 0x1aafb6f40
T1: 0x1aafb6f40 
Updating replacement state
[ARC Fill] New block => Insert 0xcb9a5680 into T1
Updating replacement state
[ARC Fill] New block => Insert 0xcb9a58c0 into T1
Updating replacement state
[ARC Fill] New block => Insert 0xcb9a5900 into T1
Updating replacement state
[ARC Fill] New block => Insert 0x9cff25c0 into T1
Updating replacement state
[ARC Fill] New block => Insert 0xe046e5c0 into T1
Updating replacement state
[ARC Fill] New block => Insert 0x2f7b8d200 into T1
Updating replacement state
Updating replacement state
Updating replacement state
[ARC Fill] New block => Insert 0x2f945b380 into T1
[ARC Fill] New block => Insert 0x321e891c0 into T1
[ARC Fill] New block => Insert 0x321e89180 into T1
Updating replacement state
[ARC Fill] New block => Insert 0xe046e8c0 into T1
Updating replacement state
[ARC Fill] New block => Insert 0x31be108c0 into T1
Updating replacement state
Updating replacement state
[ARC Fill] New block => Insert 0xfaf995c0 into T1
Updating replacement state
Hit: 0x20ecf55c0
T1: 0xcb9a55c0 0x20ecf55c0 
[ARC Fill] New block => Insert 0xc67da4c0 into T1
Updating replacement state
[ARC Fill] New block => Insert 0x3bd3435c0 into T1
Updating replacement state
Updating replacement state
[ARC Fill] New block => Insert 0xc67da980 into T1
[ARC Fill] New block => Insert 0x28a93e100 into T1
Updating replacement state
Updating replacement state
Updating replacement state
[ARC Fill] New block => Insert 0xc67da740 into T1
[ARC Fill] New block => Insert 0x3bd343b80 into T1
[ARC Fill] New block => Insert 0x3bd343bc0 into T1
Updating replacement state
[ARC Fill] New block => Insert 0xc67da700 into T1
Updating replacement state
[ARC Fill] New block => Insert 0x3bd343b40 into T1
Updating replacement state
[ARC Fill] New block => Insert 0xcb9a59c0 into T1
Updating replacement state
Updating replacement state
Updating replacement state
Updating replacement state
[ARC Fill] New block => Insert 0xcb9a5c80 into T1
[ARC Fill] New block => Insert 0xcb9a5a00 into T1
[ARC Fill] New block => Insert 0xcb9a5cc0 into T1
[ARC Fill] New block => Insert 0xcb9a5e40 into T1
Updating replacement state
Hit: 0x2d9355cc0
T1: 0xcb9a5cc0 0x287615cc0 0x20ecf5cc0 0x2d9355cc0 
Updating replacement state
Updating replacement state
Updating replacement state
Updating replacement state
[ARC Fill] New block => Insert 0xcb9a5d80 into T1
[ARC Fill] New block => Insert 0xcb9a5d40 into T1
Updating replacement state
Hit: 0x20ecf5d80
T1: 0xcb9a5d80 0x287615d80 0x2d9355d80 0x20ecf5d80 
[ARC Fill] New block => Insert 0xcb9a5d00 into T1
[ARC Fill] New block => Insert 0xcb9a5e80 into T1
Updating replacement state
[ARC Fill] New block => Insert 0xcb9a5e00 into T1
Updating replacement state
[ARC Fill] New block => Insert 0xe046e140 into T1
Updating replacement state
Updating replacement state
Updating replacement state
Updating replacement state
Updating replacement state
Updating replacement state
Updating replacement state
Updating replacement state
Updating replacement state
Updating replacement state
Updating replacement state
Updating replacement state
Updating replacement state
[ARC Fill] New block => Insert 0x2c077c180 into T1
[ARC Fill] New block => Insert 0x2c077c3c0 into T1
[ARC Fill] New block => Insert 0x2c077c1c0 into T1
[ARC Fill] New block => Insert 0x2c077c200 into T1
[ARC Fill] New block => Insert 0x2c077c2c0 into T1
[ARC Fill] New block => Insert 0x2c077c340 into T1
[ARC Fill] New block => Insert 0x2c077c380 into T1
[ARC Fill] New block => Insert 0x2c077c140 into T1
[ARC Fill] New block => Insert 0x2c077c400 into T1
[ARC Fill] New block => Insert 0x2c077c240 into T1
[ARC Fill] New block => Insert 0x2c077c280 into T1
[ARC Fill] New block => Insert 0x2c077c300 into T1
[ARC Fill] New block => Insert 0xe046edc0 into T1
Updating replacement state
Hit: 0x1aafb6dc0
T1: 0x1aafb6dc0 
Updating replacement state
[ARC Fill] New block => Insert 0x32502adc0 into T1
Updating replacement state
Hit: 0x287615dc0
T1: 0x287615dc0 0x20ecf5dc0 
Updating replacement state
Updating replacement state
Updating replacement state
[ARC Fill] New block => Insert 0x32502ae00 into T1
Updating replacement state
[ARC Fill] New block => Insert 0xcb9a5a80 into T1
[ARC Fill] New block => Insert 0x32502ae40 into T1
Updating replacement state
Hit: 0x287615e40
T1: 0xcb9a5e40 0x287615e40 
Updating replacement state
Updating replacement state
Updating replacement state
Updating replacement state
Updating replacement state
Updating replacement state
[ARC Fill] New block => Insert 0xcb9a5ac0 into T1
[ARC Fill] New block => Insert 0xcb9a5b00 into T1
[ARC Fill] New block => Insert 0xcb9a5a40 into T1
[ARC Fill] New block => Insert 0xcb9a5c40 into T1
[ARC Fill] New block => Insert 0x32502ae80 into T1
[ARC Fill] New block => Insert 0x32502aec0 into T1
[ARC Fill] New block => Insert 0x32502af00 into T1
Updating replacement state
Updating replacement state
Updating replacement state
[ARC Fill] New block => Insert 0xcb9a5b40 into T1
Updating replacement state
Hit: 0x1aafb6b40
T1: 0x1aafb6b40 
[ARC Fill] New block => Insert 0x32502af40 into T1
[ARC Fill] New block => Insert 0x32502af80 into T1
Updating replacement state
Updating replacement state
Updating replacement state
[...]
Updating replacement state
Hit: 0x2f945b300
T1: 0x1b5edb300 0x3572ab300 0x257cbb300 0x546bb300 0x206a0b300 0x19adeb300 0x39294b300 
T2: 0x2f945b300 0x110a7b300 
Updating replacement state
[ARC Fill] New block => Insert 0xe535cc0 into T1
Updating replacement state
Updating replacement state
[ARC Fill] New block => Insert 0x2aeaacc0 into T1
[ARC Fill] New block => Insert 0x2aeaad00 into T1
Updating replacement state
Hit: 0x333b49580
T1: 0x162ff9580 0x367d49580 0x3489d9580 0x117bd9580 0x36d9c9580 0x390309580 0x18fcd9580 0xd05c9580 0x321e89580 
T2: 0x3d1ba9580 0x333b49580 0x269c9580 0x38f889580 
Updating replacement state
[ARC Fill] New block => Insert 0x229b98280 into T1
Updating replacement state
[ARC Fill] New block => Insert 0x27fdc3280 into T1
Updating replacement state
[ARC Fill] New block => Insert 0x19bf5e8c0 into T1
Updating replacement state
Updating replacement state
[ARC Fill] New block => Insert 0x11ffeda00 into T1
[ARC Fill] New block => Insert 0x11ffeda40 into T1
Updating replacement state
Updating replacement state
[ARC Fill] New block => Insert 0x11ffedb80 into T1
[ARC Fill] New block => Insert 0x11ffedb40 into T1
Updating replacement state
Hit: 0xd9fe7080
T1: 0xd9fe7080 0x2b5a7080 0x35d0a7080 0x2d3927080 0x134a07080 0x3c8017080 0x92bd7080 0x37cd37080 0x1bd1b7080 0x1adf57080 0xfaa77080 0x10e027080 0x3028c7080 
Updating replacement state
Hit: 0x1b90ec080
T1: 0x1b90ec080 0x1a73cc080 0x1fe66c080 0x19568c080 0x1bbbbc080 
Updating replacement state
[ARC Fill] New block => Insert 0x2832cd080 into T1
Updating replacement state
Hit: 0x1a10a080
T1: 0x33420a080 0x2cd70a080 0xf184a080 0x2df8ca080 0x1d0f3a080 0x2d3d5a080 0x2f4a7a080 0x28f0ca080 
T2: 0x1a10a080 0x8754a080 0x2aa42a080 
Updating replacement state
Updating replacement state
[ARC Fill] New block => Insert 0x11ffedbc0 into T1
[ARC Fill] New block => Insert 0x11ffedc00 into T1
Updating replacement state
Updating replacement state
[ARC Fill] New block => Insert 0x11ffed940 into T1
[ARC Fill] New block => Insert 0x11ffed980 into T1
Updating replacement state
[ARC Fill] New block => Insert 0x11ffeda80 into T1
Updating replacement state
[ARC Fill] New block => Insert 0x347b084c0 into T1
Updating replacement state
Hit: 0x35c273c0
T1: 0x2c6cf73c0 0x35c273c0 0x2b5a73c0 0x35d0a73c0 0x2d39273c0 0x92bd73c0 0x1cc2d73c0 0x3c80173c0 0x37cd373c0 0x1bd1b73c0 0xfaa773c0 
Updating replacement state
Hit: 0x1b90ec3c0
T1: 0x1b90ec3c0 0x108edc3c0 0x1fe66c3c0 0x221dac3c0 0x28c1bc3c0 0x3d73ec3c0 0x3253c3c0 
Updating replacement state
[ARC Fill] New block => Insert 0x24c5b43c0 into T1
Updating replacement state
[ARC Fill] New block => Insert 0x162ff9a80 into T1
Updating replacement state
Hit: 0x287615540
T1: 0x7b9a5540 0xe535540 0xd8e45540 0x2dac05540 0x489a5540 0x14e855540 0x29ab15540 0x17bef5540 
T2: 0x11e25540 0x17c4a5540 0xcb9a5540 0x20ecf5540 0x2ffd45540 0x287615540 
Updating replacement state
Hit: 0x1b90ec540
T1: 0x1b90ec540 0x1fe66c540 0x19568c540 0x1bbbbc540 0x28c1bc540 0x3253c540 0x3734ec540 
Updating replacement state
Hit: 0x19568c1c0
T1: 0x1fe66c1c0 0x19568c1c0 0x28c1bc1c0 0x3d73ec1c0 0x3253c1c0 
Updating replacement state
Hit: 0x2876151c0
T1: 0x186af51c0 0xd8e451c0 0x489a51c0 0x17c4a51c0 0x3287e51c0 0x29ab151c0 0x14e8551c0 0x17bef51c0 
T2: 0x2876151c0 0x2ffd451c0 0xcb9a51c0 0x20ecf51c0 0x2f5a051c0 0x11e251c0 
Updating replacement state
Hit: 0x151b67b40
T1: 0x11a687b40 0x2b5a7b40 0x35d0a7b40 0x2d3927b40 0x35307b40 0x3c8017b40 0x37cd37b40 0x92bd7b40 0xfaa77b40 0x3966a7b40 
T2: 0x151b67b40 
Updating replacement state
Hit: 0x3636e6b40
T1: 0x3636e6b40 0x3fc006b40 0x696d6b40 0x19f786b40 0x3e2a6b40 0x16186b40 0x33f2f6b40 0xa1fe6b40 0x2db376b40 
Updating replacement state
Updating replacement state
Hit: 0x3d73ecf80
T1: 0x1fe66cf80 0x108edcf80 0x19568cf80 0x221dacf80 0x2f40cf80 0x3253cf80 0x3734ecf80 0x1f919cf80 
T2: 0xb70fcf80 0x20597cf80 0x3d73ecf80 0x2dee5cf80 0x2db79cf80 
[ARC Fill] New block => Insert 0x92bd7a80 into T1
Updating replacement state
Hit: 0xc2e3200
T1: 0x3e4073200 0x13e033200 0x2533f3200 0x3c6563200 
T2: 0x77193200 0x2f98f3200 0x3135b3200 0xc2e3200 0x231743200 
Updating replacement state
Hit: 0x3317f2080
T1: 0x152b12080 0x17e362080 0x34fc62080 0x380cb2080 0x168f82080 0x1e0b62080 0x331972080 0x3317f2080 0x2406e2080 0x2bd302080 0x268d02080 0x3735d2080 0x3bdb2080 0x3c1072080 
Updating replacement state
Hit: 0x2ea380fc0
T1: 0xc8400fc0 0x27b3f0fc0 0x19eb20fc0 0x2af070fc0 0x14fb20fc0 0x232a0fc0 0x3a4270fc0 0x348de0fc0 0x34e4a0fc0 
T2: 0x1a1480fc0 0x23a610fc0 0x21e960fc0 0x2ea380fc0 0x13ed0fc0 0x26ca0fc0 0x210230fc0 
Updating replacement state
Hit: 0x27b3f0fc0
T1: 0xc8400fc0 0x27b3f0fc0 0x19eb20fc0 0x2af070fc0 0x14fb20fc0 0x232a0fc0 0x3a4270fc0 0x348de0fc0 0x34e4a0fc0 
Updating replacement state
Hit: 0x35c27400
T1: 0x35c27400 0x2b5a7400 0x35d0a7400 0x2d3927400 0x35ab97400 0x1cc2d7400 0x3c8017400 0x37cd37400 0x1bd1b7400 0x2c6cf7400 0xfaa77400 
Updating replacement state
[ARC Fill] New block => Insert 0x23d744400 into T1
Updating replacement state
[ARC Fill] New block => Insert 0x23d744440 into T1
Updating replacement state
[ARC Fill] New block => Insert 0x23d744580 into T1
Updating replacement state
[ARC Fill] New block => Insert 0x23d744540 into T1
Updating replacement state
[ARC Fill] New block => Insert 0x24c5b4400 into T1
Updating replacement state
Hit: 0x180f0da80
T1: 0x11ffeda80 0x68bada80 0x80ffda80 0xc374da80 
T2: 0x180f0da80 0x3a4a3da80 0x26e3dda80 0x9b24da80 
Updating replacement state
Updating replacement state
[ARC Fill] New block => Insert 0x8450c180 into T1
[ARC Fill] New block => Insert 0x8450c140 into T1
Updating replacement state
[ARC Fill] New block => Insert 0x8450c240 into T1
Updating replacement state
[ARC Fill] New block => Insert 0x8450c1c0 into T1
Updating replacement state
[ARC Fill] New block => Insert 0x8450c200 into T1
Updating replacement state
[ARC Fill] New block => Insert 0xfe4f6840 into T1
Updating replacement state
Hit: 0x2f98f3c40
T1: 0x3e4073c40 0x2533f3c40 0x1ccd83c40 0x358ea3c40 0x3c6563c40 0xccf33c40 
T2: 0x2f98f3c40 0x3135b3c40 0xc2e3c40 
Updating replacement state
Hit: 0x489a5640
T1: 0x3287e5640 0xd8e45640 0x2dac05640 0x2f5a05640 0x109a15640 0x489a5640 0x14e855640 0x29ab15640 
Updating replacement state
Hit: 0x14f548b00
T1: 0x18db78b00 0x254628b00 0x11f678b00 0x2af2c8b00 0x29e0d8b00 0x24e608b00 
T2: 0x246148b00 0x14f548b00 0x2c4c58b00 
Updating replacement state
Hit: 0x16186780
T1: 0x41ec6780 0x28d6d6780 0x696d6780 0x19f786780 0x33f2f6780 0x2db376780 
T2: 0x3636e6780 0x1aafb6780 0x3e2a6780 0x16186780 
Updating replacement state
Hit: 0x37c1efec0
T1: 0x173f6fec0 0x16b35fec0 0x1b76afec0 0x1db2bfec0 0x37c1efec0 0x235e3fec0 0x3a8fefec0 0x6a97fec0 0x9031fec0 0x1c5f2fec0 0x339e7fec0 
Updating replacement state
Hit: 0x1b90ec780
T1: 0x1b90ec780 0x262f5c780 0x1fe66c780 0x221dac780 0x28c1bc780 0x3253c780 0x2f5d8c780 
Updating replacement state
Hit: 0x37c1eff00
T1: 0xd938ff00 0x173f6ff00 0x16b35ff00 0x1b76aff00 0x1db2bff00 0x138e7ff00 0x37c1eff00 0x6a97ff00 0x9031ff00 0x1c5f2ff00 0x339e7ff00 
Updating replacement state
Hit: 0x1956fa940
T1: 0x33420a940 0x2cd70a940 0x1d0f3a940 0x2d3d5a940 0x2f4a7a940 0x28f0ca940 
T2: 0x2aa42a940 0x1956fa940 0xf184a940 
Updating replacement state
Hit: 0xd938f940
T1: 0x1325df940 0xd938f940 0x173f6f940 0x138e7f940 0x1b76af940 0x1db2bf940 0x3a270f940 0x3a8fef940 0x6a97f940 
Updating replacement state
Hit: 0x2ea380340
T1: 0x3afac0340 0xc8400340 0x23a610340 0x35c570340 0x26ca0340 0x232a0340 0x3a4270340 0x1c6530340 0x348de0340 0x34e4a0340 0x6e620340 
T2: 0x1a1480340 0x2ea380340 0x21e960340 0x13ed0340 0x210230340 
Updating replacement state
Hit: 0x13ed0000
T1: 0xb1a20000 0x14fb20000 0x35c570000 0x26ca0000 0x232a0000 0x3a4270000 0x348de0000 0x34e4a0000 
T2: 0x1a1480000 0x23a610000 0x13ed0000 0x2ea380000 0x21e960000 0x210230000 0xecbe0000 
Updating replacement state
Hit: 0x287615340
T1: 0x2dac05340 0xe535340 0x38c365340 0xd8e45340 0x489a5340 0x17c4a5340 0x109a15340 0x14e855340 0x17bef5340 
T2: 0x2ffd45340 0x287615340 0xcb9a5340 0x2f5a05340 0x11e25340 
Updating replacement state
Hit: 0x97109000
T1: 0x5bbb9000 0x97109000 0x162ff9000 0x3489d9000 0x3d1ba9000 0x117bd9000 0x36d9c9000 0x390309000 0x321e89000 0x18fcd9000 0xd05c9000 0x1899c9000 
Updating replacement state
[ARC Fill] New block => Insert 0x35c27600 into T1
Updating replacement state
Updating replacement state
[ARC Fill] New block => Insert 0x14ea81640 into T1
[ARC Fill] New block => Insert 0x14ea81600 into T1
Updating replacement state
[ARC Fill] New block => Insert 0x14ea81680 into T1
Updating replacement state
Hit: 0x1a14803c0
T1: 0x3afac03c0 0x1c65303c0 0x21e9603c0 0x26ca03c0 0x2af0703c0 0x232a03c0 0x3a42703c0 0x348de03c0 
T2: 0x163bb03c0 0x1a14803c0 0x23a6103c0 0x35c5703c0 0x2ea3803c0 0x13ed03c0 0x2102303c0 
Updating replacement state
[ARC Fill] New block => Insert 0x35c27640 into T1
Updating replacement state
Hit: 0x2f98f3640
T1: 0x3e4073640 0x231743640 0x9ba3640 0x1ccd83640 0x3c6563640 
T2: 0x2f98f3640 0xc2e3640 0x2533f3640 0x3135b3640 
Updating replacement state
Updating replacement state
[ARC Fill] New block => Insert 0x153425640 into T1
[ARC Fill] New block => Insert 0x153425680 into T1
Updating replacement state
[ARC Fill] New block => Insert 0x1534256c0 into T1
Updating replacement state
Hit: 0x11e25580
T1: 0xd8e45580 0x2dac05580 0x489a5580 0x17c4a5580 0x2f5a05580 0x29ab15580 0x14e855580 0x17bef5580 
T2: 0x287615580 0x20ecf5580 0xcb9a5580 0x11e25580 0x2ffd45580 
Updating replacement state
[ARC Fill] New block => Insert 0x9e06a100 into T1
Updating replacement state
[ARC Fill] New block => Insert 0x153425a00 into T1
Updating replacement state
Hit: 0xfe4f66c0
T1: 0x3636e66c0 0xfe4f66c0 0x696d66c0 0x3e2a66c0 0x19f7866c0 0x161866c0 0x33f2f66c0 0x2db3766c0 
Updating replacement state
Hit: 0x2f98f3b80
T1: 0x3e4073b80 0x2f7403b80 0x25f733b80 0x2533f3b80 0x231743b80 0x1ccd83b80 0x358ea3b80 0x3c6563b80 0xd9703b80 0x3bd343b80 
T2: 0x2f98f3b80 0xc2e3b80 0x3135b3b80 
Updating replacement state
Hit: 0x489a5400
T1: 0x38c365400 0xd8e45400 0xe535400 0x489a5400 0x1a3525400 
Updating replacement state
Hit: 0xd938f400
T1: 0xd938f400 0x173f6f400 0x1b76af400 0x1db2bf400 0x138e7f400 0x1d410f400 0x37c1ef400 0x235e3f400 0x6a97f400 0x3a270f400 
Updating replacement state
Hit: 0x151b674c0
T1: 0x2b5a74c0 0x35d0a74c0 0x1768c74c0 0x2d39274c0 0x134a074c0 0x35ab974c0 0x1cc2d74c0 0x353074c0 0x92bd74c0 0x3c80174c0 0x37cd374c0 0x1bd1b74c0 0x2c6cf74c0 0xfaa774c0 
T2: 0x151b674c0 0x1403574c0 
Updating replacement state
Hit: 0x33cf7bc00
T1: 0x15e8abc00 0x6abfbc00 0x167a5bc00 0x257cbbc00 0x206a0bc00 0x33cf7bc00 0x19adebc00 0x39294bc00 0x2f945bc00 
Updating replacement state
Hit: 0x1b90ec4c0
T1: 0x1b90ec4c0 0x2db79c4c0 0xcbeac4c0 0x17868c4c0 0x19568c4c0 0x1bbbbc4c0 0x28c1bc4c0 0x3d73ec4c0 0x3253c4c0 
Updating replacement state
Hit: 0x9ba3b00
T1: 0x3e4073b00 0x2f7403b00 0x231743b00 0x2533f3b00 0x9ba3b00 0x1ccd83b00 0x3c6563b00 
Updating replacement state
Hit: 0xc2e3000
T1: 0x3e4073000 0x13e033000 0x13dbc3000 0x2533f3000 0x22eed3000 0x231743000 0x9ba3000 0x3c6563000 0xd9703000 0x242e93000 
T2: 0x2f98f3000 0x3135b3000 0x1ccd83000 0xc2e3000 
Updating replacement state
Hit: 0x1a10a000
T1: 0x2cd70a000 0xf184a000 0x38e35a000 0x2d3d5a000 0x2df8ca000 0x2f4a7a000 0x28f0ca000 0x136aaa000 
T2: 0x1a10a000 0x267bca000 0x8754a000 0x33420a000 0x2aa42a000 0x1d0f3a000 
Updating replacement state
Hit: 0x215ca2380
T1: 0x17e362380 0x34fc62380 0x3567b2380 0x3c1072380 0x331972380 0x2406e2380 0x2bd302380 0x268d02380 0x214522380 0x3735d2380 0x3bdb2380 
T2: 0x152b12380 0x215ca2380 0x3317f2380 0x168f82380 
Updating replacement state
Updating replacement state
[ARC Fill] New block => Insert 0x28d6d6ec0 into T1
[ARC Fill] New block => Insert 0x28d6d6f00 into T1
Updating replacement state
[ARC Fill] New block => Insert 0x358190a00 into T1
Updating replacement state
Hit: 0x2f98f3500
T1: 0x968c3500 0x3e4073500 0x2533f3500 0x9ba3500 0x1ccd83500 0x3c6563500 0xd9703500 
T2: 0xc2e3500 0x2f98f3500 0x3135b3500 
Updating replacement state
Hit: 0x1efe41500
T1: 0x38bda1500 0x24e691500 0x129c21500 0x142a21500 0x204be1500 0x30a9a1500 
T2: 0x1efe41500 0x2a5981500 0x3fe151500 0x24bda1500 0x3217b1500 
Updating replacement state
Hit: 0xd938f880
T1: 0x1325df880 0x173f6f880 0x339e7f880 0x1b76af880 0x1db2bf880 0x138e7f880 0x37c1ef880 0x1d3aff880 0x16b35f880 0x3a8fef880 0x6a97f880 0x1c5f2f880 
T2: 0xd938f880 0x1a1b2f880 
Updating replacement state
Hit: 0x287615880
T1: 0xd8e45880 0x2dac05880 0x36bcf5880 0x489a5880 0x17c4a5880 0x2f5a05880 0x14e855880 0x20ecf5880 
T2: 0x287615880 0xcb9a5880 0x11e25880 0x2ffd45880 
Updating replacement state
Hit: 0x17c4a5100
T1: 0x2ef075100 0xe535100 0x38c365100 0x17bef5100 0xd8e45100 0x489a5100 0x17c4a5100 0x109a15100 0x3287e5100 0x14e855100 0x2f5a05100 
Updating replacement state
Hit: 0x18461ed80
T1: 0x31173ed80 0x1a8b3ed80 0x3b57ded80 0x2177eed80 
T2: 0x3355ed80 0x6894ed80 0x18461ed80 0x3c79aed80 0x3442ced80 
Updating replacement state
Hit: 0x3636e6d80
T1: 0x3636e6d80 0x696d6d80 0x2e1236d80 0xf9e16d80 0x33f2f6d80 0xa1fe6d80 0x2db376d80 
Updating replacement state
Hit: 0x168f82340
T1: 0xdbbd2340 0x17e362340 0x34fc62340 0x3c1072340 0x331972340 0x2406e2340 0x2bd302340 0x168f82340 0x268d02340 0x3735d2340 0x3bdb2340 
Updating replacement state
[ARC Fill] New block => Insert 0x9ba3a80 into T1
Updating replacement state
Hit: 0x3636e6a80
T1: 0x3636e6a80 0x696d6a80 0x33f2f6a80 0xa1fe6a80 0x2db376a80 
Updating replacement state
Hit: 0x1956fa700
T1: 0xf184a700 0x2d3d5a700 0x2df8ca700 0x2f4a7a700 0x28f0ca700 0xc67da700 0x136aaa700 
T2: 0x33420a700 0x8754a700 0x1956fa700 0x2cd70a700 0x2aa42a700 
Updating replacement state
Hit: 0xc2e3900
T1: 0x3e4073900 0x9ba3900 0x2533f3900 0x231743900 0x1ccd83900 0x3c6563900 
T2: 0x2f98f3900 0x21cf33900 0xc2e3900 0x358ea3900 0x3135b3900 
Updating replacement state
Hit: 0x3135b3480
T1: 0x968c3480 0x3e4073480 0x2f7403480 0x13e033480 0x2533f3480 0x358ea3480 0x1ccd83480 0x3c6563480 
T2: 0x106ea3480 0xc2e3480 0x77193480 0x3135b3480 0x2f98f3480 0x231743480 
Updating replacement state
Hit: 0xd938f400
T1: 0x173f6f400 0x1b76af400 0x1db2bf400 0x138e7f400 0x1d410f400 0x37c1ef400 0x235e3f400 0x6a97f400 0x3a270f400 
T2: 0xd938f400 0x1a406f400 0x339e7f400 0x16b35f400 0x1a1b2f400 
Updating replacement state
Hit: 0x1b90ec400
T1: 0x1b90ec400 0x17868c400 0x1fe66c400 0x19568c400 0x221dac400 0x28c1bc400 0x3253c400 
Updating replacement state
Hit: 0xd938f3c0
T1: 0xd938f3c0 0x173f6f3c0 0x1b76af3c0 0x5744f3c0 0x1db2bf3c0 0x138e7f3c0 0x37c1ef3c0 0x6a97f3c0 0x3a270f3c0 
Updating replacement state
Hit: 0xd938f340
T1: 0xd938f340 0x173f6f340 0x1b76af340 0x1db2bf340 0x138e7f340 0x37c1ef340 0x235e3f340 0x6a97f340 0x3a270f340 
Updating replacement state
Hit: 0x2876153c0
T1: 0x2eea853c0 0xd8e453c0 0x489a53c0 0x14e8553c0 0x109a153c0 0x17bef53c0 0x20ecf53c0 
T2: 0x2876153c0 0x17c4a53c0 0x2ffd453c0 0xcb9a53c0 0x29ab153c0 0x11e253c0 
Updating replacement state
Eviction Mismatch:0x34e4a0100
[ARC Fill] Evicted 0x3afac0100 from T1 to B1
[ARC Fill] New block => Insert 0x358190100 into T1
Updating replacement state
Hit: 0x2f98f3080
T1: 0x968c3080 0x3e4073080 0x13e033080 0x2533f3080 0x22eed3080 0xd9703080 0x3c6563080 0x118043080 0x242e93080 
T2: 0x2f98f3080 0x1ccd83080 0x9ba3080 0x3135b3080 0xc2e3080 
Updating replacement state
Hit: 0x129bfe080
T1: 0x129bfe080 0x29ab6e080 0x14bb0e080 0x2177ee080 0x31173e080 
Updating replacement state
Hit: 0x254628340
T1: 0x6b1f8340 0x18db78340 0x11f678340 0x246148340 0x2af2c8340 0x14e6e8340 0x1e5618340 
T2: 0x254628340 0x14f548340 0x3da668340 
Updating replacement state
[ARC Fill] New block => Insert 0x3317f2700 into T1
Updating replacement state
Hit: 0x1b90ec700
T1: 0x1b90ec700 0x1fe66c700 0x1bbbbc700 0x19568c700 0x3d73ec700 0x221dac700 0x28c1bc700 0x262f5c700 0x3253c700 0x2f5d8c700 
Updating replacement state
Hit: 0x1956fa900
T1: 0x33420a900 0x2cd70a900 0x2d3d5a900 0x2aa42a900 0x2f4a7a900 0x28f0ca900 
T2: 0x1956fa900 0xf184a900 
Updating replacement state
Hit: 0x2f7b8d500
T1: 0x35c4dd500 0x376ddd500 0x26e3dd500 0xc374d500 0x2f118d500 0x80ffd500 
T2: 0x26fecd500 0x2f7b8d500 0x68bad500 0x3a4a3d500 0x9b24d500 
Updating replacement state
Hit: 0x2db79c500
T1: 0x1b90ec500 0x2db79c500 0x108edc500 0x19568c500 0x1bbbbc500 0x28c1bc500 0x3253c500 
Updating replacement state
Hit: 0x24bda1980
T1: 0x38bda1980 0x2a5981980 0x235a1980 0x3fe151980 0x142a21980 0x129c21980 0x204be1980 
T2: 0x364c31980 0x24bda1980 0x3217b1980 0x142db1980 
Updating replacement state
Hit: 0x23a610340
T1: 0x3afac0340 0xc8400340 0x23a610340 0x35c570340 0x26ca0340 0x232a0340 0x3a4270340 0x1c6530340 0x348de0340 0x34e4a0340 0x6e620340 
Updating replacement state
Hit: 0x108edc5c0
T1: 0x1b90ec5c0 0x1a73cc5c0 0x1fe66c5c0 0x19568c5c0 0x1bbbbc5c0 0x28c1bc5c0 0x262f5c5c0 0x3253c5c0 
T2: 0xb70fc5c0 0x108edc5c0 0x20597c5c0 
Updating replacement state
Hit: 0x2f98f3340
T1: 0x3e4073340 0x22eed3340 0x13e033340 0x2533f3340 0x231743340 0x9ba3340 0x1ccd83340 0x77193340 0x3c6563340 
T2: 0x2f98f3340 0xc2e3340 0x3135b3340 
Updating replacement state
Hit: 0x2f945b5c0
T1: 0x6abfb5c0 0x33cf7b5c0 0x167a5b5c0 0x257cbb5c0 0x206a0b5c0 0x19adeb5c0 0x39294b5c0 
T2: 0x2f945b5c0 0x546bb5c0 0x110a7b5c0 0x3572ab5c0 
Updating replacement state
Hit: 0x696d64c0
T1: 0x696d64c0 0x19f7864c0 0x1c4a664c0 0x33f2f64c0 0x161864c0 0x2db3764c0 
Updating replacement state
Hit: 0x2db79c4c0
T1: 0x2db79c4c0 0xcbeac4c0 0x17868c4c0 0x19568c4c0 0x1bbbbc4c0 0x28c1bc4c0 0x3d73ec4c0 0x3253c4c0 
Updating replacement state
Updating replacement state
Hit: 0x17bef5580
T1: 0xd8e45580 0x2dac05580 0x489a5580 0x17c4a5580 0x2f5a05580 0x29ab15580 0x14e855580 0x17bef5580 
[ARC Fill] New block => Insert 0x2dee5cec0 into T1
Updating replacement state
[ARC Fill] New block => Insert 0xe535740 into T1
Updating replacement state
Hit: 0x1b90ec740
T1: 0x1b90ec740 0x1fe66c740 0x19568c740 0x221dac740 0x28c1bc740 0x262f5c740 0x3253c740 0x2dee5c740 0x2f5d8c740 
Updating replacement state
[ARC Fill] New block => Insert 0xf0f44740 into T1
Updating replacement state
Hit: 0x17c4a5280
T1: 0x2dac05280 0xd8e45280 0x17bef5280 0x489a5280 0x14e855280 0x109a15280 0x2493e5280 
T2: 0x362f45280 0x287615280 0x2ffd45280 0x17c4a5280 0x20ecf5280 0x2f5a05280 0x11e25280 0xcb9a5280 
Updating replacement state
Updating replacement state
Hit: 0x36d9c9b80
T1: 0x3d1ba9b80 0x36d9c9b80 0x390309b80 0x2b0009b80 0xd05c9b80 0xfaf99b80 0x3d96d9b80 
[ARC Fill] New block => Insert 0x3317f29c0 into T1
Updating replacement state
Hit: 0x1956fabc0
T1: 0xd6babc0 0x33420abc0 0x2cd70abc0 0xf184abc0 0x2d3d5abc0 0x2df8cabc0 0x119d4abc0 0x2f4a7abc0 0x1d0f3abc0 0x28f0cabc0 
T2: 0x1956fabc0 0x2aa42abc0 
Updating replacement state
Hit: 0x2f7b8d3c0
T1: 0x68bad3c0 0x376ddd3c0 0x915cd3c0 0xc374d3c0 0x26e3dd3c0 0x80ffd3c0 0x2f118d3c0 
T2: 0x3a4a3d3c0 0x2f7b8d3c0 0x9b24d3c0 
Updating replacement state
Updating replacement state
[ARC Fill] New block => Insert 0x14e6e8280 into T1
[ARC Fill] New block => Insert 0x3e47c300 into T1
Updating replacement state
Hit: 0x287615280
T1: 0x2dac05280 0xd8e45280 0x17bef5280 0x489a5280 0x14e855280 0x109a15280 0x2493e5280 
T2: 0x17c4a5280 0x362f45280 0x287615280 0x2ffd45280 0x20ecf5280 0x2f5a05280 0x11e25280 0xcb9a5280 
Updating replacement state
Hit: 0x267bca000
T1: 0x2cd70a000 0xf184a000 0x38e35a000 0x2d3d5a000 0x2df8ca000 0x2f4a7a000 0x28f0ca000 0x136aaa000 
T2: 0x1a10a000 0x267bca000 0x8754a000 0x33420a000 0x2aa42a000 0x1d0f3a000 
Updating replacement state
Hit: 0x24bda1440
T1: 0xa9fb1440 0x129c21440 0x204be1440 0x24bda1440 
Updating replacement state
Hit: 0x2f98f3440
T1: 0x968c3440 0x3e4073440 0x2f7403440 0x13e033440 0x2533f3440 0x358ea3440 0x1ccd83440 0x77193440 0x3c6563440 
T2: 0x2f98f3440 0x3135b3440 0xc2e3440 
Updating replacement state
Hit: 0xd8e455c0
T1: 0x3287e55c0 0xd8e455c0 0x2dac055c0 0x489a55c0 0x17c4a55c0 0x1a35255c0 0x14e8555c0 0x17bef55c0 
Updating replacement state
Hit: 0x321e89180
T1: 0x61d39180 0x5bbb9180 0x162ff9180 0x106049180 0x3489d9180 0x2b0009180 0x117bd9180 0x374a79180 0x390309180 0x18fcd9180 0xd05c9180 0xfaf99180 
T2: 0x36d9c9180 0x269c9180 0x38f889180 
